
 OpenBabel08112017403D

 23 23  0  0  0  0  0  0  0  0999 V2000
    2.7560    1.4200    0.0010 O   0  0  0  0  0  0  0  0  0  0  0  0
    2.2660    2.6750    0.0060 C   0  0  0  0  0  0  0  0  0  0  0  0
    1.0690    2.9130    0.0030 O   0  0  0  0  0  0  0  0  0  0  0  0
    3.3330    3.7050    0.0010 C   0  0  0  0  0  0  0  0  0  0  0  0
    3.7260    1.3410    0.0000 H   0  0  0  0  0  0  0  0  0  0  0  0
    2.9320    4.9850    0.0000 C   0  0  0  0  0  0  0  0  0  0  0  0
    3.7050    6.2220   -0.0010 C   0  0  0  0  0  0  0  0  0  0  0  0
    1.8510    5.1530    0.0000 H   0  0  0  0  0  0  0  0  0  0  0  0
    4.3700    3.4070    0.0000 H   0  0  0  0  0  0  0  0  0  0  0  0
    3.0000    7.3750   -0.0030 C   0  0  0  0  0  0  0  0  0  0  0  0
    3.6120    8.5680   -0.0050 C   0  0  0  0  0  0  0  0  0  0  0  0
    4.9580    8.6890   -0.0050 C   0  0  0  0  0  0  0  0  0  0  0  0
    5.6650    7.5310   -0.0030 C   0  0  0  0  0  0  0  0  0  0  0  0
    5.0550    6.3220   -0.0010 C   0  0  0  0  0  0  0  0  0  0  0  0
    5.4070    9.9880   -0.0080 N   0  0  0  0  0  0  0  0  0  0  0  0
    2.9970    9.4640   -0.0070 H   0  0  0  0  0  0  0  0  0  0  0  0
    1.9130    7.3660   -0.0040 H   0  0  0  0  0  0  0  0  0  0  0  0
    5.6830    5.4360   -0.0000 H   0  0  0  0  0  0  0  0  0  0  0  0
    6.7510    7.5340   -0.0040 H   0  0  0  0  0  0  0  0  0  0  0  0
    6.6310   10.3830    0.0010 C   0  0  0  0  0  0  0  0  0  0  0  0
    6.7720   11.7220   -0.0040 O   0  0  0  0  0  0  0  0  0  0  0  0
    7.5750    9.6160    0.0130 O   0  0  0  0  0  0  0  0  0  0  0  0
    5.8670   12.0670   -0.0140 H   0  0  0  0  0  0  0  0  0  0  0  0
  1  5  1  0  0  0  0
  1  2  1  0  0  0  0
  2  3  2  0  0  0  0
  2  4  1  0  0  0  0
  4  9  1  0  0  0  0
  4  6  2  0  0  0  0
  6  8  1  0  0  0  0
  6  7  1  0  0  0  0
  7 14  2  0  0  0  0
  7 10  5  0  0  0  0
 10 11  2  0  0  0  0
 10 17  1  0  0  0  0
 11 16  1  0  0  0  0
 11 12  5  0  0  0  0
 12 15  1  0  0  0  0
 12 13  2  0  0  0  0
 13 19  1  0  0  0  0
 13 14  5  0  0  0  0
 14 18  1  0  0  0  0
 15 20  2  0  0  0  0
 20 22  2  0  0  0  0
 20 21  1  0  0  0  0
 21 23  1  0  0  0  0
M  END
