
 OpenBabel07262020493D

 19 19  0  0  1  0  0  0  0  0999 V2000
    1.2116    0.6995    0.0000 O   0  0  0  0  0  0  0  0  0  0  0  0
    0.0000    1.3990    0.0000 C   0  0  0  0  0  0  0  0  0  0  0  0
   -1.2116    0.6995    0.0000 O   0  0  0  0  0  0  0  0  0  0  0  0
    2.6861    2.7980    0.0000 C   0  0  0  0  0  0  0  0  0  0  0  0
    2.5032    0.4173    0.0000 H   0  0  0  0  0  0  0  0  0  0  0  0
    4.8968    5.5601    0.0000 C   0  0  0  0  0  0  0  0  0  0  0  0
    5.1644    6.6472   -0.0000 C   0  0  1  0  0  0  0  0  0  0  0  0
    1.0055    4.3858    0.0000 H   0  0  0  0  0  0  0  0  0  0  0  0
    3.7395    2.8132    0.0000 H   0  0  0  0  0  0  0  0  0  0  0  0
    3.5169    8.5250   -0.0000 C   0  0  1  0  0  0  0  0  0  0  0  0
    3.5090    8.5284    0.0000 C   0  0  1  0  0  0  0  0  0  0  0  0
    3.5253    8.5108   -0.0000 C   0  0  1  0  0  0  0  0  0  0  0  0
    5.4407    6.5771   -0.0000 C   0  0  1  0  0  0  0  0  0  0  0  0
    5.7586    7.1670   -0.0000 C   0  0  2  0  0  0  0  0  0  0  0  0
    5.0871    9.3343    0.0000 *   0  0  0  0  0  0  0  0  0  0  0  0
    3.5140    8.5242    0.0000 *   0  0  0  0  0  0  0  0  0  0  0  0
    3.4508    6.5390    0.0000 *   0  0  0  0  0  0  0  0  0  0  0  0
    5.8106    6.5251    0.0000 *   0  0  0  0  0  0  0  0  0  0  0  0
    6.1967    7.6692    0.0000 *   0  0  0  0  0  0  0  0  0  0  0  0
  1  5  1  0  0  0  0
  2  1  1  0  0  0  0
  3  2  2  0  0  0  0
  4  2  1  0  0  0  0
  4  9  1  0  0  0  0
  6  4  2  3  0  0  0
  6  8  1  0  0  0  0
  7  6  1  1  0  0  0
  7 14  5  0  0  0  0
 10  7  5  0  0  0  0
 10 11  5  0  0  0  0
 10 17  1  1  0  0  0
 11 16  1  1  0  0  0
 12 11  5  0  0  0  0
 12 15  1  1  0  0  0
 13 12  5  0  0  0  0
 13 19  1  1  0  0  0
 14 13  5  0  0  0  0
 14 18  1  1  0  0  0
M  END
