29

O          1.89790        3.48660        0.89820
C          0.65500        4.00030        0.78050
O         -0.25610        3.51070        1.42950
C          0.39290        5.15520       -0.15240
H          2.64180        3.83680        0.38830
C          1.14430        6.40640        0.22850
C          0.36010        7.38030       -0.61980
N         -1.03660        6.97400       -0.39340
N         -1.01250        5.57580       -0.15870
C          0.67140        8.84750       -0.34840
H         -1.53390        5.09110       -0.92520
H         -1.37350        7.37620        0.51130
H          2.23610        6.36480        0.02860
H          0.60490        7.18890       -1.69120
H          0.96380        6.64020        1.30330
H          0.68350        4.85470       -1.18790
C         -0.31680        9.78910        0.00510
C          0.01950       11.12910        0.21940
C          1.34780       11.56420        0.08820
C          2.33490       10.62950       -0.26550
C          1.99900        9.29100       -0.48440
C          1.69610       12.98960        0.30970
H         -0.76590       11.82650        0.48410
H         -1.35610        9.51330        0.10630
H          2.78220        8.59760       -0.76330
H          3.36840       10.93300       -0.37820
O          0.73420       13.88260        0.62970
O          2.85370       13.36720        0.19860
H          0.93850       14.81800        0.77080
