
 OpenBabel12162108253D

  5  4  0  0  0  0  0  0  0  0999 V2000
    1.1250    0.5760   -0.0180 O   0  0  0  0  0  0  0  0  0  0  0  0
    0.0980    1.4390    0.0750 C   0  0  0  0  0  0  0  0  0  0  0  0
   -1.0500    1.0310    0.0100 O   0  0  0  0  0  0  0  0  0  0  0  0
    0.2290    2.1630    0.1640 *   0  0  0  0  0  0  0  0  0  0  0  0
    2.0320    0.9040    0.0340 H   0  0  0  0  0  0  0  0  0  0  0  0
  1  5  1  0  0  0  0
  2  1  1  0  0  0  0
  3  2  2  0  0  0  0
  4  2  1  0  0  0  0
M  END
