
 OpenBabel01152116103D

 35 36  0  0  1  0  0  0  0  0999 V2000
    1.2116    0.6995    0.0000 O   0  0  0  0  0  0  0  0  0  0  0  0
   -0.0044    1.6179    0.0000 C   0  0  0  0  0  0  0  0  0  0  0  0
   -1.2116    0.6995    0.0000 O   0  0  0  0  0  0  0  0  0  0  0  0
   -0.0000    2.7980   -0.0000 C   0  0  1  0  0  0  0  0  0  0  0  0
    2.5032    0.4173    0.0000 H   0  0  0  0  0  0  0  0  0  0  0  0
   -3.0300    2.9807   -0.0000 C   0  0  1  0  0  0  0  0  0  0  0  0
   -1.0219    4.3861   -0.0000 C   0  0  0  0  0  0  0  0  0  0  0  0
   -0.0721    5.0163    0.0000 C   0  0  1  0  0  0  0  0  0  0  0  0
    0.8843    4.4585    0.0000 C   0  0  0  0  0  0  0  0  0  0  0  0
    1.0286    3.2832    0.0000 C   0  0  2  0  0  0  0  0  0  0  0  0
   -0.0767    6.1129    0.0000 C   0  0  0  0  0  0  0  0  0  0  0  0
   -1.8767    5.0221    0.0000 H   0  0  0  0  0  0  0  0  0  0  0  0
   -1.9321    2.7135   -0.0000 C   0  0  0  0  0  0  0  0  0  0  0  0
    0.7342    3.0217    0.0000 O   0  0  0  0  0  0  0  0  0  0  0  0
    1.9192    5.1321    0.0000 H   0  0  0  0  0  0  0  0  0  0  0  0
   -0.2211    7.0557    0.0000 C   0  0  0  0  0  0  0  0  0  0  0  0
   -0.0567    8.7143    0.0000 C   0  0  1  0  0  0  0  0  0  0  0  0
   -3.5676    1.8465   -0.0000 H   0  0  0  0  0  0  0  0  0  0  0  0
   -1.5385    2.6087   -0.0000 H   0  0  0  0  0  0  0  0  0  0  0  0
   -1.1424    2.8488   -0.0000 H   0  0  0  0  0  0  0  0  0  0  0  0
    0.6646    2.9629    0.0000 H   0  0  0  0  0  0  0  0  0  0  0  0
    2.1848   10.5624    0.0000 C   0  0  0  0  0  0  0  0  0  0  0  0
    1.1149   12.7786    0.0000 C   0  0  2  0  0  0  0  0  0  0  0  0
   -1.7584   12.8211    0.0000 N   0  0  0  0  0  0  0  0  0  0  0  0
   -2.7260   10.4536    0.0000 N   0  0  0  0  0  0  0  0  0  0  0  0
    1.3411   14.7021    0.0000 C   0  0  0  0  0  0  0  0  0  0  0  0
   -5.1060    9.7801    0.0000 H   0  0  0  0  0  0  0  0  0  0  0  0
   -4.4948   15.0280    0.0000 H   0  0  0  0  0  0  0  0  0  0  0  0
    7.5091    8.5245    0.0000 H   0  0  0  0  0  0  0  0  0  0  0  0
    7.0604   12.3135    0.0000 H   0  0  0  0  0  0  0  0  0  0  0  0
    3.1909    6.1062    0.0000 H   0  0  0  0  0  0  0  0  0  0  0  0
   -1.9673    8.1333    0.0000 H   0  0  0  0  0  0  0  0  0  0  0  0
   -0.3355   16.2150    0.0000 O   0  0  0  0  0  0  0  0  0  0  0  0
    2.6519   15.9911    0.0000 O   0  0  0  0  0  0  0  0  0  0  0  0
   -0.4443   17.7252    0.0000 H   0  0  0  0  0  0  0  0  0  0  0  0
  1  5  1  0  0  0  0
  2  1  1  0  0  0  0
  3  2  2  0  0  0  0
  4  2  1  1  0  0  0
  4 10  5  0  0  0  0
  6  4  5  0  0  0  0
  6  7  5  0  0  0  0
  6 13  1  6  0  0  0
  7 12  1  0  0  0  0
  8  7  5  0  0  0  0
  8 11  1  6  0  0  0
  9  8  5  0  0  0  0
  9 15  1  0  0  0  0
 10  9  5  0  0  0  0
 10 14  1  6  0  0  0
 13 18  1  0  0  0  0
 13 19  1  0  0  0  0
 13 20  1  0  0  0  0
 14 21  1  0  0  0  0
 16 11  3  0  0  0  0
 17 16  1  0  0  0  0
 17 25  1  0  0  0  0
 17 32  1  1  0  0  0
 22 17  1  0  0  0  0
 22 29  1  0  0  0  0
 22 31  1  0  0  0  0
 23 22  1  0  0  0  0
 23 30  1  1  0  0  0
 24 23  1  0  0  0  0
 25 24  1  0  0  0  0
 26 23  1  0  0  0  0
 26 34  2  0  0  0  0
 27 25  1  0  0  0  0
 28 24  1  0  0  0  0
 33 26  1  0  0  0  0
 35 33  1  0  0  0  0
M  END
  0  0  0  0
 18 21  1  0  0  0  0
 19 18  5  0  0  0  0
 19 25  1  0  0  0  0
 20 19  5  0  0  0  0
 20 24  1  0  0  0  0
 26 21  3  0  0  0  0
 27 26  1  0  0  0  0
 28 27  2  3  0  0  0
 29 28  1  0  0  0  0
 29 33  1  0  0  0  0
 29 37  1  1  0  0  0
 30 29  1  0  0  0  0
 30 35  1  0  0  0  0
 30 36  1  0  0  0  0
 31 30  1  0  0  0  0
 32 31  1  0  0  0  0
 33 32  2  3  0  0  0
 34 31  1  0  0  0  0
 34 39  2  0  0  0  0
 38 34  1  0  0  0  0
 40 38  1  0  0  0  0
M  END
 0
 16 11  1  0  0  0  0
 17 25  1  0  0  0  0
 17 22  1  0  0  0  0
 18 17  1  0  0  0  0
 18 23  1  0  0  0  0
 19 25  1  0  0  0  0
 19 30  1  0  0  0  0
 19 37  1  1  0  0  0
 20 18  1  0  0  0  0
 21 17  1  0  0  0  0
 25 16  1  0  0  0  0
 25 24  1  1  0  0  0
 27 19  1  0  0  0  0
 27 34  1  0  0  0  0
 27 36  1  0  0  0  0
 28 27  1  0  0  0  0
 28 35  1  1  0  0  0
 29 28  1  0  0  0  0
 30 29  1  0  0  0  0
 31 28  1  0  0  0  0
 31 41  1  0  0  0  0
 31 45  1  1  0  0  0
 32 30  1  0  0  0  0
 33 29  1  0  0  0  0
 38 31  1  0  0  0  0
 38 43  1  0  0  0  0
 38 44  1  0  0  0  0
 39 38  1  0  0  0  0
 40 39  1  0  0  0  0
 41 40  2  3  0  0  0
 42 39  1  0  0  0  0
 42 47  2  0  0  0  0
 46 42  1  0  0  0  0
 48 46  1  0  0  0  0
M  END
