
 OpenBabel01152110433D

 33 34  0  0  1  0  0  0  0  0999 V2000
    1.2116    0.6995    0.0000 O   0  0  0  0  0  0  0  0  0  0  0  0
   -0.0044    1.6179    0.0000 C   0  0  0  0  0  0  0  0  0  0  0  0
   -1.2116    0.6995    0.0000 O   0  0  0  0  0  0  0  0  0  0  0  0
   -0.0000    2.7980    0.0000 C   0  0  1  0  0  0  0  0  0  0  0  0
    2.5032    0.4173    0.0000 H   0  0  0  0  0  0  0  0  0  0  0  0
   -1.0781    3.5084    0.0000 C   0  0  1  0  0  0  0  0  0  0  0  0
   -1.0219    4.3861   -0.0000 C   0  0  0  0  0  0  0  0  0  0  0  0
   -0.1620    4.6552    0.0000 C   0  0  1  0  0  0  0  0  0  0  0  0
    0.6460    4.7039    0.0000 C   0  0  1  0  0  0  0  0  0  0  0  0
    0.9433    3.2211    0.0000 C   0  0  0  0  0  0  0  0  0  0  0  0
   -0.0767    6.1129    0.0000 C   0  0  1  0  0  0  0  0  0  0  0  0
   -1.8767    5.0221    0.0000 H   0  0  0  0  0  0  0  0  0  0  0  0
   -1.1384    3.6697    0.0000 Br  0  0  0  0  0  0  0  0  0  0  0  0
    2.0691    2.7807    0.0000 H   0  0  0  0  0  0  0  0  0  0  0  0
    0.5193    4.8408    0.0000 N   0  0  0  0  0  0  0  0  0  0  0  0
    0.4639    4.8481    0.0000 H   0  0  0  0  0  0  0  0  0  0  0  0
    0.5038    4.8941    0.0000 H   0  0  0  0  0  0  0  0  0  0  0  0
    1.8202    7.8097    0.0000 C   0  0  0  0  0  0  0  0  0  0  0  0
    0.8054    9.7119    0.0000 C   0  0  2  0  0  0  0  0  0  0  0  0
   -1.7112    9.6476    0.0000 N   0  0  0  0  0  0  0  0  0  0  0  0
   -2.4747    7.5411    0.0000 N   0  0  0  0  0  0  0  0  0  0  0  0
    0.9321   11.3731    0.0000 N   0  0  0  0  0  0  0  0  0  0  0  0
   -4.5342    6.8675    0.0000 H   0  0  0  0  0  0  0  0  0  0  0  0
   -4.1845   11.4829    0.0000 H   0  0  0  0  0  0  0  0  0  0  0  0
    6.5527    6.2138    0.0000 H   0  0  0  0  0  0  0  0  0  0  0  0
    6.0262    9.5146    0.0000 H   0  0  0  0  0  0  0  0  0  0  0  0
    2.8582    3.9445    0.0000 H   0  0  0  0  0  0  0  0  0  0  0  0
   -1.7286    5.5368    0.0000 H   0  0  0  0  0  0  0  0  0  0  0  0
    0.8932   12.2782    0.0000 N   0  0  0  0  0  0  0  0  0  0  0  0
    0.9528   13.0644    0.0000 C   0  0  0  0  0  0  0  0  0  0  0  0
   -0.7238   14.5773    0.0000 O   0  0  0  0  0  0  0  0  0  0  0  0
    2.2636   14.3534    0.0000 O   0  0  0  0  0  0  0  0  0  0  0  0
   -0.8325   16.0874    0.0000 H   0  0  0  0  0  0  0  0  0  0  0  0
  1  5  1  0  0  0  0
  2  1  1  0  0  0  0
  3  2  2  0  0  0  0
  4  2  1  1  0  0  0
  4 10  5  0  0  0  0
  6  4  5  0  0  0  0
  6  7  5  0  0  0  0
  6 13  1  6  0  0  0
  7 12  1  0  0  0  0
  8  7  5  6  0  0  0
  8 11  1  0  0  0  0
  9  8  5  0  0  0  0
  9 15  1  6  0  0  0
 10  9  5  0  0  0  0
 10 14  1  0  0  0  0
 11 21  1  0  0  0  0
 11 28  1  1  0  0  0
 15 16  1  0  0  0  0
 15 17  1  0  0  0  0
 18 11  1  0  0  0  0
 18 25  1  0  0  0  0
 18 27  1  0  0  0  0
 19 18  1  0  0  0  0
 19 26  1  1  0  0  0
 20 19  1  0  0  0  0
 21 20  1  0  0  0  0
 22 19  1  0  0  0  0
 23 21  1  0  0  0  0
 24 20  1  0  0  0  0
 29 22  2  0  0  0  0
 30 29  1  0  0  0  0
 30 32  2  0  0  0  0
 31 30  1  0  0  0  0
 33 31  1  0  0  0  0
M  END
