
 OpenBabel10092013563D

 29 30  0  0  1  0  0  0  0  0999 V2000
    1.2116    0.6995    0.0000 O   0  0  0  0  0  0  0  0  0  0  0  0
   -0.1168    0.9388    0.0000 C   0  0  0  0  0  0  0  0  0  0  0  0
   -1.2116    0.6995    0.0000 O   0  0  0  0  0  0  0  0  0  0  0  0
   -0.0000    2.7980    0.0000 C   0  0  1  0  0  0  0  0  0  0  0  0
    2.5032    0.4173    0.0000 H   0  0  0  0  0  0  0  0  0  0  0  0
    2.4292    4.9525    0.0000 C   0  0  0  0  0  0  0  0  0  0  0  0
    1.1565    7.7632    0.0000 C   0  0  2  0  0  0  0  0  0  0  0  0
   -2.0660    7.3163    0.0000 N   0  0  0  0  0  0  0  0  0  0  0  0
   -3.0515    4.6331    0.0000 N   0  0  0  0  0  0  0  0  0  0  0  0
    1.2671    9.8015    0.0000 C   0  0  1  0  0  0  0  0  0  0  0  0
   -5.6825    3.7849    0.0000 H   0  0  0  0  0  0  0  0  0  0  0  0
   -5.2113    9.6710    0.0000 H   0  0  0  0  0  0  0  0  0  0  0  0
    8.4581    2.8908    0.0000 H   0  0  0  0  0  0  0  0  0  0  0  0
    7.8042    7.1047    0.0000 H   0  0  0  0  0  0  0  0  0  0  0  0
    3.7324    0.0158    0.0000 H   0  0  0  0  0  0  0  0  0  0  0  0
   -2.1105    2.0721    0.0000 H   0  0  0  0  0  0  0  0  0  0  0  0
   -0.3907   10.6430    0.0000 C   0  0  0  0  0  0  0  0  0  0  0  0
   -0.3595   12.6343    0.0000 C   0  0  0  0  0  0  0  0  0  0  0  0
    1.3364   13.6399    0.0000 C   0  0  1  0  0  0  0  0  0  0  0  0
    2.9397   12.5928    0.0000 C   0  0  0  0  0  0  0  0  0  0  0  0
    2.9336   10.4501    0.0000 C   0  0  0  0  0  0  0  0  0  0  0  0
    1.4631   15.3012    0.0000 C   0  0  0  0  0  0  0  0  0  0  0  0
   -1.7806   13.8077    0.0000 H   0  0  0  0  0  0  0  0  0  0  0  0
   -1.8458    9.7361    0.0000 H   0  0  0  0  0  0  0  0  0  0  0  0
    4.8401    9.5909    0.0000 H   0  0  0  0  0  0  0  0  0  0  0  0
    4.7864   13.6662    0.0000 H   0  0  0  0  0  0  0  0  0  0  0  0
   -0.2136   16.8141    0.0000 O   0  0  0  0  0  0  0  0  0  0  0  0
    2.7738   16.5902    0.0000 O   0  0  0  0  0  0  0  0  0  0  0  0
   -0.3223   18.3243    0.0000 H   0  0  0  0  0  0  0  0  0  0  0  0
  1  5  1  0  0  0  0
  2  1  1  0  0  0  0
  3  2  2  0  0  0  0
  4  2  1  0  0  0  0
  4  9  1  0  0  0  0
  4 16  1  1  0  0  0
  6  4  1  0  0  0  0
  6 13  1  0  0  0  0
  6 15  1  0  0  0  0
  7  6  1  0  0  0  0
  7 14  1  1  0  0  0
  8  7  1  0  0  0  0
  9  8  1  0  0  0  0
 10  7  1  0  0  0  0
 10 17  5  1  0  0  0
 10 21  5  0  0  0  0
 11  9  1  0  0  0  0
 12  8  1  0  0  0  0
 17 18  5  0  0  0  0
 17 24  1  0  0  0  0
 18 23  1  0  0  0  0
 19 18  5  0  0  0  0
 19 22  1  6  0  0  0
 20 19  5  0  0  0  0
 20 26  1  0  0  0  0
 21 20  5  0  0  0  0
 21 25  1  0  0  0  0
 22 28  2  0  0  0  0
 27 22  1  0  0  0  0
 29 27  1  0  0  0  0
M  END
