
 OpenBabel01202116513D

 43 45  0  0  1  0  0  0  0  0999 V2000
    1.2116    0.6995    0.0000 O   0  0  0  0  0  0  0  0  0  0  0  0
   -0.0044    1.6179    0.0000 C   0  0  0  0  0  0  0  0  0  0  0  0
   -1.2116    0.6995    0.0000 O   0  0  0  0  0  0  0  0  0  0  0  0
   -0.0000    2.7980   -0.0000 C   0  0  0  0  0  0  0  0  0  0  0  0
    2.5032    0.4173    0.0000 H   0  0  0  0  0  0  0  0  0  0  0  0
   -1.8474    2.6755    0.0000 C   0  0  0  0  0  0  0  0  0  0  0  0
   -1.0219    4.3861    0.0000 C   0  0  0  0  0  0  0  0  0  0  0  0
   -0.0721    5.0163    0.0000 C   0  0  0  0  0  0  0  0  0  0  0  0
    0.8843    4.4585    0.0000 C   0  0  0  0  0  0  0  0  0  0  0  0
    0.9433    3.2211    0.0000 C   0  0  0  0  0  0  0  0  0  0  0  0
   -0.0767    6.1129    0.0000 C   0  0  0  0  0  0  0  0  0  0  0  0
   -1.8767    5.0221    0.0000 H   0  0  0  0  0  0  0  0  0  0  0  0
   -1.7676    2.6657    0.0000 C   0  0  0  0  0  0  0  0  0  0  0  0
    2.0691    2.7807    0.0000 H   0  0  0  0  0  0  0  0  0  0  0  0
    1.9192    5.1321    0.0000 H   0  0  0  0  0  0  0  0  0  0  0  0
   -0.2211    7.0557    0.0000 C   0  0  0  0  0  0  0  0  0  0  0  0
   -0.0567    8.7143    0.0000 C   0  0  1  0  0  0  0  0  0  0  0  0
   -1.7410    2.6624    0.0000 N   0  0  0  0  0  0  0  0  0  0  0  0
    2.1848   10.5624    0.0000 C   0  0  0  0  0  0  0  0  0  0  0  0
    0.8733   12.0847    0.0000 C   0  0  2  0  0  0  0  0  0  0  0  0
   -1.7584   12.8211    0.0000 N   0  0  0  0  0  0  0  0  0  0  0  0
   -2.7260   10.4536    0.0000 N   0  0  0  0  0  0  0  0  0  0  0  0
    1.3022   14.9357    0.0000 C   0  0  1  0  0  0  0  0  0  0  0  0
   -5.1060    9.7801    0.0000 H   0  0  0  0  0  0  0  0  0  0  0  0
   -4.4948   15.0280    0.0000 H   0  0  0  0  0  0  0  0  0  0  0  0
    7.5091    8.5245    0.0000 H   0  0  0  0  0  0  0  0  0  0  0  0
    7.0604   12.3135    0.0000 H   0  0  0  0  0  0  0  0  0  0  0  0
    3.1909    6.1062    0.0000 H   0  0  0  0  0  0  0  0  0  0  0  0
   -1.9673    8.1333    0.0000 H   0  0  0  0  0  0  0  0  0  0  0  0
    5.3360   17.9325    0.0000 C   0  0  0  0  0  0  0  0  0  0  0  0
    3.6813   21.8545    0.0000 C   0  0  2  0  0  0  0  0  0  0  0  0
   -1.2787   22.1788    0.0000 N   0  0  0  0  0  0  0  0  0  0  0  0
   -3.1572   18.1735    0.0000 N   0  0  0  0  0  0  0  0  0  0  0  0
    4.2321   25.3310    0.0000 C   0  0  0  0  0  0  0  0  0  0  0  0
   -7.3275   17.2178    0.0000 H   0  0  0  0  0  0  0  0  0  0  0  0
   -5.8133   26.2304    0.0000 H   0  0  0  0  0  0  0  0  0  0  0  0
   14.3558   13.9470    0.0000 H   0  0  0  0  0  0  0  0  0  0  0  0
   13.9116   20.5317    0.0000 H   0  0  0  0  0  0  0  0  0  0  0  0
    6.6848   10.1464    0.0000 H   0  0  0  0  0  0  0  0  0  0  0  0
   -2.0491   14.0988    0.0000 H   0  0  0  0  0  0  0  0  0  0  0  0
    2.5554   26.8440    0.0000 O   0  0  0  0  0  0  0  0  0  0  0  0
    5.5428   26.6200    0.0000 O   0  0  0  0  0  0  0  0  0  0  0  0
    2.4467   28.3541    0.0000 H   0  0  0  0  0  0  0  0  0  0  0  0
  1  5  1  0  0  0  0
  2  1  1  0  0  0  0
  3  2  2  0  0  0  0
  4  2  1  0  0  0  0
  4 10  5  0  0  0  0
  6  4  5  0  0  0  0
  6  7  5  0  0  0  0
  6 13  1  0  0  0  0
  7 12  1  0  0  0  0
  8  7  5  0  0  0  0
  8 11  1  0  0  0  0
  9  8  5  0  0  0  0
  9 15  1  0  0  0  0
 10  9  5  0  0  0  0
 10 14  1  0  0  0  0
 13 18  3  0  0  0  0
 16 11  3  0  0  0  0
 17 16  1  0  0  0  0
 17 22  1  0  0  0  0
 17 29  1  1  0  0  0
 19 17  1  0  0  0  0
 19 26  1  0  0  0  0
 19 28  1  0  0  0  0
 20 19  1  0  0  0  0
 20 27  1  1  0  0  0
 21 20  1  0  0  0  0
 22 21  1  0  0  0  0
 23 20  1  0  0  0  0
 23 33  1  0  0  0  0
 23 40  1  1  0  0  0
 24 22  1  0  0  0  0
 25 21  1  0  0  0  0
 30 23  1  0  0  0  0
 30 37  1  0  0  0  0
 30 39  1  0  0  0  0
 31 30  1  0  0  0  0
 31 38  1  1  0  0  0
 32 31  1  0  0  0  0
 33 32  1  0  0  0  0
 34 31  1  0  0  0  0
 34 42  2  0  0  0  0
 35 33  1  0  0  0  0
 36 32  1  0  0  0  0
 41 34  1  0  0  0  0
 43 41  1  0  0  0  0
M  END
