
 OpenBabel10112019023D

 24 24  0  0  1  0  0  0  0  0999 V2000
    1.2116    0.6995    0.0000 O   0  0  0  0  0  0  0  0  0  0  0  0
   -0.0044    1.6179    0.0000 C   0  0  0  0  0  0  0  0  0  0  0  0
   -1.2116    0.6995    0.0000 O   0  0  0  0  0  0  0  0  0  0  0  0
    0.0000    2.7980    0.0000 C   0  0  1  0  0  0  0  0  0  0  0  0
    2.5032    0.4173    0.0000 H   0  0  0  0  0  0  0  0  0  0  0  0
   -0.9818    3.2355    0.0000 C   0  0  0  0  0  0  0  0  0  0  0  0
   -1.0219    4.3861    0.0000 C   0  0  0  0  0  0  0  0  0  0  0  0
    1.7720    5.1226    0.0000 C   0  0  1  0  0  0  0  0  0  0  0  0
    1.9170    5.1324    0.0000 C   0  0  1  0  0  0  0  0  0  0  0  0
    0.9433    3.2211   -0.0000 C   0  0  0  0  0  0  0  0  0  0  0  0
   -0.0378    5.8793    0.0000 C   0  0  0  0  0  0  0  0  0  0  0  0
   -1.8767    5.0221    0.0000 H   0  0  0  0  0  0  0  0  0  0  0  0
   -1.7954    2.6693    0.0000 H   0  0  0  0  0  0  0  0  0  0  0  0
    2.0691    2.7807    0.0000 H   0  0  0  0  0  0  0  0  0  0  0  0
    1.9199    5.1320    0.0000 C   0  0  0  0  0  0  0  0  0  0  0  0
    1.9209    5.1319    0.0000 C   0  0  0  0  0  0  0  0  0  0  0  0
    1.9189    5.1314    0.0000 H   0  0  0  0  0  0  0  0  0  0  0  0
    1.9214    5.1318    0.0000 H   0  0  0  0  0  0  0  0  0  0  0  0
    1.9231    5.1324    0.0000 H   0  0  0  0  0  0  0  0  0  0  0  0
    1.9165    5.1312    0.0000 H   0  0  0  0  0  0  0  0  0  0  0  0
    1.9237    5.1330    0.0000 H   0  0  0  0  0  0  0  0  0  0  0  0
   -1.7144    7.3922    0.0000 O   0  0  0  0  0  0  0  0  0  0  0  0
    1.2730    7.1683    0.0000 O   0  0  0  0  0  0  0  0  0  0  0  0
   -1.8231    8.9024    0.0000 H   0  0  0  0  0  0  0  0  0  0  0  0
  1  5  1  0  0  0  0
  2  1  1  0  0  0  0
  3  2  2  0  0  0  0
  4  2  1  1  0  0  0
  4 10  5  0  0  0  0
  6  4  5  0  0  0  0
  6  7  5  0  0  0  0
  6 13  1  0  0  0  0
  7 12  1  0  0  0  0
  8  7  5  0  0  0  0
  8 11  1  6  0  0  0
  9  8  5  0  0  0  0
  9 15  1  6  0  0  0
 10  9  5  0  0  0  0
 10 14  1  0  0  0  0
 11 23  2  0  0  0  0
 15 20  1  0  0  0  0
 15 21  1  0  0  0  0
 16 17  1  0  0  0  0
 16 18  1  0  0  0  0
 16 19  1  0  0  0  0
 16 15  1  0  0  0  0
 22 11  1  0  0  0  0
 24 22  1  0  0  0  0
M  HYD  1  16   0
M  ZBO  1  21   0
M  END
