
 OpenBabel11032017293D

 44 46  0  0  1  0  0  0  0  0999 V2000
    1.2116    0.6995    0.0000 O   0  0  0  0  0  0  0  0  0  0  0  0
   -0.0044    1.6179    0.0000 C   0  0  0  0  0  0  0  0  0  0  0  0
   -1.2116    0.6995    0.0000 O   0  0  0  0  0  0  0  0  0  0  0  0
   -0.0000    2.7980   -0.0000 C   0  0  1  0  0  0  0  0  0  0  0  0
    2.5032    0.4173    0.0000 H   0  0  0  0  0  0  0  0  0  0  0  0
   -1.8474    2.6755    0.0000 C   0  0  1  0  0  0  0  0  0  0  0  0
   -1.0219    4.3861    0.0000 C   0  0  0  0  0  0  0  0  0  0  0  0
   -0.0724    5.0410    0.0000 C   0  0  1  0  0  0  0  0  0  0  0  0
    2.0095    2.8634    0.0000 C   0  0  0  0  0  0  0  0  0  0  0  0
    2.0687    2.7820    0.0000 C   0  0  2  0  0  0  0  0  0  0  0  0
   -0.0767    6.1129    0.0000 C   0  0  1  0  0  0  0  0  0  0  0  0
   -1.8767    5.0221    0.0000 H   0  0  0  0  0  0  0  0  0  0  0  0
   -1.7676    2.6657    0.0000 C   0  0  0  0  0  0  0  0  0  0  0  0
    2.0692    2.7802    0.0000 C   0  0  0  0  0  0  0  0  0  0  0  0
    1.9192    5.1321    0.0000 H   0  0  0  0  0  0  0  0  0  0  0  0
    0.6496    6.6617    0.0000 C   0  0  0  0  0  0  0  0  0  0  0  0
    0.3773    7.4141    0.0000 N   0  0  0  0  0  0  0  0  0  0  0  0
   -0.4949    7.3991    0.0000 N   0  0  0  0  0  0  0  0  0  0  0  0
   -0.7842    6.6195    0.0000 N   0  0  0  0  0  0  0  0  0  0  0  0
    0.3880    8.3429    0.0000 C   0  0  1  0  0  0  0  0  0  0  0  0
    1.7321    6.8586    0.0000 H   0  0  0  0  0  0  0  0  0  0  0  0
    0.9777    5.6853    0.0000 H   0  0  0  0  0  0  0  0  0  0  0  0
   -0.8835    5.7927    0.0000 H   0  0  0  0  0  0  0  0  0  0  0  0
   -1.7410    2.6624    0.0000 N   0  0  0  0  0  0  0  0  0  0  0  0
    2.0694    2.7797    0.0000 C   0  0  0  0  0  0  0  0  0  0  0  0
    2.0673    2.7814    0.0000 H   0  0  0  0  0  0  0  0  0  0  0  0
    2.0695    2.7794    0.0000 H   0  0  0  0  0  0  0  0  0  0  0  0
    2.0719    2.7774    0.0000 H   0  0  0  0  0  0  0  0  0  0  0  0
    2.0519    2.7987    0.0000 H   0  0  0  0  0  0  0  0  0  0  0  0
    2.0843    2.7699    0.0000 H   0  0  0  0  0  0  0  0  0  0  0  0
    1.1364    8.7663    0.0000 O   0  0  0  0  0  0  0  0  0  0  0  0
    0.0318    9.5083    0.0000 C   0  0  0  0  0  0  0  0  0  0  0  0
   -0.2681    8.7136    0.0000 C   0  0  0  0  0  0  0  0  0  0  0  0
    0.8801   10.2666    0.0000 C   0  0  0  0  0  0  0  0  0  0  0  0
   -1.2527    8.6754    0.0000 H   0  0  0  0  0  0  0  0  0  0  0  0
   -0.4167   10.3867    0.0000 H   0  0  0  0  0  0  0  0  0  0  0  0
   -1.2252    9.5149    0.0000 H   0  0  0  0  0  0  0  0  0  0  0  0
   -0.6747    7.6414    0.0000 H   0  0  0  0  0  0  0  0  0  0  0  0
    2.1115    9.4533    0.0000 H   0  0  0  0  0  0  0  0  0  0  0  0
    0.8322    9.5094    0.0000 C   0  0  2  0  0  0  0  0  0  0  0  0
    1.2402    7.7544    0.0000 H   0  0  0  0  0  0  0  0  0  0  0  0
   -0.7966   11.7795    0.0000 O   0  0  0  0  0  0  0  0  0  0  0  0
    2.1908   11.5556    0.0000 O   0  0  0  0  0  0  0  0  0  0  0  0
   -0.9053   13.2897    0.0000 H   0  0  0  0  0  0  0  0  0  0  0  0
  1  5  1  0  0  0  0
  2  1  1  0  0  0  0
  3  2  2  0  0  0  0
  4  2  1  6  0  0  0
  4 10  5  0  0  0  0
  6  4  5  0  0  0  0
  6  7  5  0  0  0  0
  6 13  1  6  0  0  0
  7 12  1  0  0  0  0
  8  7  5  6  0  0  0
  8 11  1  0  0  0  0
  9  8  5  0  0  0  0
  9 15  1  0  0  0  0
 10  9  5  0  0  0  0
 10 14  1  6  0  0  0
 11 19  1  0  0  0  0
 11 23  1  1  0  0  0
 13 24  3  0  0  0  0
 14 29  1  0  0  0  0
 14 30  1  0  0  0  0
 16 11  1  0  0  0  0
 16 21  1  0  0  0  0
 16 22  1  0  0  0  0
 17 16  1  0  0  0  0
 18 17  1  0  0  0  0
 19 18  2  0  0  0  0
 20 17  1  0  0  0  0
 20 33  1  0  0  0  0
 20 41  1  1  0  0  0
 25 26  1  0  0  0  0
 25 27  1  0  0  0  0
 25 28  1  0  0  0  0
 25 14  1  0  0  0  0
 31 20  1  0  0  0  0
 32 40  1  0  0  0  0
 32 37  1  0  0  0  0
 33 32  1  0  0  0  0
 33 38  1  0  0  0  0
 34 40  1  0  0  0  0
 34 43  2  0  0  0  0
 35 33  1  0  0  0  0
 36 32  1  0  0  0  0
 40 31  1  0  0  0  0
 40 39  1  1  0  0  0
 42 34  1  0  0  0  0
 44 42  1  0  0  0  0
M  END
