
 OpenBabel01272115323D

 24 24  0  0  1  0  0  0  0  0999 V2000
    1.2116    0.6995    0.0000 O   0  0  0  0  0  0  0  0  0  0  0  0
   -0.0044    1.6179    0.0000 C   0  0  0  0  0  0  0  0  0  0  0  0
   -1.2116    0.6995    0.0000 O   0  0  0  0  0  0  0  0  0  0  0  0
    0.0000    2.7980    0.0000 C   0  0  1  0  0  0  0  0  0  0  0  0
    2.5032    0.4173    0.0000 H   0  0  0  0  0  0  0  0  0  0  0  0
   -0.9818    3.2355    0.0000 C   0  0  0  0  0  0  0  0  0  0  0  0
   -1.0219    4.3861    0.0000 C   0  0  0  0  0  0  0  0  0  0  0  0
   -0.0721    5.0163   -0.0000 C   0  0  1  0  0  0  0  0  0  0  0  0
    0.6460    4.7039    0.0000 C   0  0  1  0  0  0  0  0  0  0  0  0
    0.9433    3.2211    0.0000 C   0  0  0  0  0  0  0  0  0  0  0  0
   -0.0767    6.1129    0.0000 C   0  0  0  0  0  0  0  0  0  0  0  0
   -1.8767    5.0221    0.0000 H   0  0  0  0  0  0  0  0  0  0  0  0
   -1.7954    2.6693    0.0000 H   0  0  0  0  0  0  0  0  0  0  0  0
    2.0691    2.7807    0.0000 H   0  0  0  0  0  0  0  0  0  0  0  0
    0.5193    4.8408    0.0000 N   0  0  0  0  0  0  0  0  0  0  0  0
   -0.0303    7.6145    0.0000 C   0  0  0  0  0  0  0  0  0  0  0  0
    0.0868    8.5544    0.0000 C   0  0  0  0  0  0  0  0  0  0  0  0
   -1.7573    7.7006    0.0000 H   0  0  0  0  0  0  0  0  0  0  0  0
    0.9767    6.1280    0.0000 H   0  0  0  0  0  0  0  0  0  0  0  0
    0.4639    4.8481    0.0000 H   0  0  0  0  0  0  0  0  0  0  0  0
    0.5038    4.8941    0.0000 H   0  0  0  0  0  0  0  0  0  0  0  0
   -1.5899   10.0673    0.0000 O   0  0  0  0  0  0  0  0  0  0  0  0
    1.3975    9.8434    0.0000 O   0  0  0  0  0  0  0  0  0  0  0  0
   -1.6986   11.5774    0.0000 H   0  0  0  0  0  0  0  0  0  0  0  0
  1  5  1  0  0  0  0
  2  1  1  0  0  0  0
  3  2  2  0  0  0  0
  4  2  1  1  0  0  0
  4 10  5  0  0  0  0
  6  4  5  0  0  0  0
  6  7  5  0  0  0  0
  6 13  1  0  0  0  0
  7 12  1  0  0  0  0
  8  7  5  0  0  0  0
  8 11  1  6  0  0  0
  9  8  5  0  0  0  0
  9 15  1  6  0  0  0
 10  9  5  0  0  0  0
 10 14  1  0  0  0  0
 11 19  1  0  0  0  0
 15 20  1  0  0  0  0
 15 21  1  0  0  0  0
 16 11  2  3  0  0  0
 16 18  1  0  0  0  0
 17 16  1  0  0  0  0
 17 23  2  0  0  0  0
 22 17  1  0  0  0  0
 24 22  1  0  0  0  0
M  END
