
 OpenBabel10212009143D

 42 44  0  0  1  0  0  0  0  0999 V2000
    1.2116    0.6995    0.0000 O   0  0  0  0  0  0  0  0  0  0  0  0
    0.0000    1.3990    0.0000 C   0  0  0  0  0  0  0  0  0  0  0  0
   -1.2116    0.6995    0.0000 O   0  0  0  0  0  0  0  0  0  0  0  0
    0.0389    2.5644    0.0000 N   0  0  0  0  0  0  0  0  0  0  0  0
    2.5032    0.4173    0.0000 H   0  0  0  0  0  0  0  0  0  0  0  0
    0.0000    3.4695    0.0000 N   0  0  0  0  0  0  0  0  0  0  0  0
    0.0207    4.4892    0.0000 C   0  0  0  0  0  0  0  0  0  0  0  0
   -0.1237    5.4321    0.0000 C   0  0  0  0  0  0  0  0  0  0  0  0
    0.0407    7.0907    0.0000 C   0  0  1  0  0  0  0  0  0  0  0  0
    2.2823    8.9388    0.0000 C   0  0  0  0  0  0  0  0  0  0  0  0
    1.1676   11.1589    0.0000 C   0  0  2  0  0  0  0  0  0  0  0  0
   -1.6609   11.1974    0.0000 N   0  0  0  0  0  0  0  0  0  0  0  0
   -2.6286    8.8300    0.0000 N   0  0  0  0  0  0  0  0  0  0  0  0
    1.3996   13.3121    0.0000 C   0  0  1  0  0  0  0  0  0  0  0  0
   -5.0085    8.1565    0.0000 H   0  0  0  0  0  0  0  0  0  0  0  0
   -4.3974   13.4044    0.0000 H   0  0  0  0  0  0  0  0  0  0  0  0
    7.6065    6.9009    0.0000 H   0  0  0  0  0  0  0  0  0  0  0  0
    7.1578   10.6899    0.0000 H   0  0  0  0  0  0  0  0  0  0  0  0
    3.2884    4.4826    0.0000 H   0  0  0  0  0  0  0  0  0  0  0  0
   -1.8699    6.5097    0.0000 H   0  0  0  0  0  0  0  0  0  0  0  0
    3.2309   14.1279    0.0000 O   0  0  0  0  0  0  0  0  0  0  0  0
    0.8328   16.0962    0.0000 C   0  0  0  0  0  0  0  0  0  0  0  0
   -0.0405   14.3186    0.0000 C   0  0  0  0  0  0  0  0  0  0  0  0
    2.9323   18.2177    0.0000 C   0  0  1  0  0  0  0  0  0  0  0  0
   -2.3341   14.4496    0.0000 H   0  0  0  0  0  0  0  0  0  0  0  0
   -0.0123   18.2348    0.0000 H   0  0  0  0  0  0  0  0  0  0  0  0
   -2.0831   16.3919    0.0000 H   0  0  0  0  0  0  0  0  0  0  0  0
   -1.2232   11.9209    0.0000 H   0  0  0  0  0  0  0  0  0  0  0  0
    5.6472   15.5047    0.0000 H   0  0  0  0  0  0  0  0  0  0  0  0
    2.6954   15.9722    0.0000 C   0  0  2  0  0  0  0  0  0  0  0  0
    3.2460   11.7561    0.0000 H   0  0  0  0  0  0  0  0  0  0  0  0
    4.5792   19.2004    0.0000 C   0  0  0  0  0  0  0  0  0  0  0  0
    4.2218   20.8344    0.0000 N   0  0  0  0  0  0  0  0  0  0  0  0
    2.3515   21.0071    0.0000 N   0  0  0  0  0  0  0  0  0  0  0  0
    1.5670   19.4409    0.0000 N   0  0  0  0  0  0  0  0  0  0  0  0
    4.4558   22.5474    0.0000 C   0  0  0  0  0  0  0  0  0  0  0  0
    6.8910   19.3645    0.0000 H   0  0  0  0  0  0  0  0  0  0  0  0
    5.0421   17.0806    0.0000 H   0  0  0  0  0  0  0  0  0  0  0  0
    1.1695   17.7323    0.0000 H   0  0  0  0  0  0  0  0  0  0  0  0
    2.7791   24.0603    0.0000 O   0  0  0  0  0  0  0  0  0  0  0  0
    5.7666   23.8364    0.0000 O   0  0  0  0  0  0  0  0  0  0  0  0
    2.6704   25.5705    0.0000 H   0  0  0  0  0  0  0  0  0  0  0  0
  1  5  1  0  0  0  0
  2  1  1  0  0  0  0
  3  2  2  0  0  0  0
  4  2  1  0  0  0  0
  6  4  2  0  0  0  0
  7  6  1  0  0  0  0
  8  7  3  0  0  0  0
  9  8  1  0  0  0  0
  9 13  1  0  0  0  0
  9 20  1  1  0  0  0
 10  9  1  0  0  0  0
 10 17  1  0  0  0  0
 10 19  1  0  0  0  0
 11 10  1  0  0  0  0
 11 18  1  1  0  0  0
 12 11  1  0  0  0  0
 13 12  1  0  0  0  0
 14 11  1  0  0  0  0
 14 23  1  0  0  0  0
 14 31  1  1  0  0  0
 15 13  1  0  0  0  0
 16 12  1  0  0  0  0
 21 14  1  0  0  0  0
 22 30  1  0  0  0  0
 22 27  1  0  0  0  0
 23 22  1  0  0  0  0
 23 28  1  0  0  0  0
 24 30  1  0  0  0  0
 24 35  1  0  0  0  0
 24 39  1  1  0  0  0
 25 23  1  0  0  0  0
 26 22  1  0  0  0  0
 30 21  1  0  0  0  0
 30 29  1  1  0  0  0
 32 24  1  0  0  0  0
 32 37  1  0  0  0  0
 32 38  1  0  0  0  0
 33 32  1  0  0  0  0
 34 33  1  0  0  0  0
 35 34  2  0  0  0  0
 36 33  1  0  0  0  0
 36 41  2  0  0  0  0
 40 36  1  0  0  0  0
 42 40  1  0  0  0  0
M  END
