
 OpenBabel11022019203D

 19 19  0  0  1  0  0  0  0  0999 V2000
    1.2640    0.5410   -0.1670 O   0  0  0  0  0  0  0  0  0  0  0  0
    0.2400    1.3350    0.2160 C   0  0  0  0  0  0  0  0  0  0  0  0
   -0.6500    0.8470    0.9000 O   0  0  0  0  0  0  0  0  0  0  0  0
    0.1970    2.8100   -0.2150 C   0  0  1  0  0  0  0  0  0  0  0  0
    1.9780    0.8580   -0.7370 H   0  0  0  0  0  0  0  0  0  0  0  0
   -0.9290    3.3570    0.0120 C   0  0  1  0  0  0  0  0  0  0  0  0
   -0.9400    4.5990   -0.2180 C   0  0  0  0  0  0  0  0  0  0  0  0
    0.0260    5.2160    0.3180 C   0  0  1  0  0  0  0  0  0  0  0  0
    1.1440    4.6770    0.0660 C   0  0  0  0  0  0  0  0  0  0  0  0
    1.1630    3.4410    0.3110 C   0  0  0  0  0  0  0  0  0  0  0  0
   -0.0040    6.6970   -0.0650 C   0  0  0  0  0  0  0  0  0  0  0  0
   -1.9160    5.0250    0.1190 H   0  0  0  0  0  0  0  0  0  0  0  0
   -1.9350    2.7400   -0.7500 O   0  0  0  0  0  0  0  0  0  0  0  0
    2.1450    3.0250   -0.0160 H   0  0  0  0  0  0  0  0  0  0  0  0
    1.9580    5.1780    0.6440 H   0  0  0  0  0  0  0  0  0  0  0  0
   -2.6110    2.4310   -0.0920 H   0  0  0  0  0  0  0  0  0  0  0  0
   -1.0760    7.4450    0.2790 O   0  0  0  0  0  0  0  0  0  0  0  0
    0.9260    7.2250   -0.6630 O   0  0  0  0  0  0  0  0  0  0  0  0
   -1.1280    8.3860    0.0580 H   0  0  0  0  0  0  0  0  0  0  0  0
  1  5  1  0  0  0  0
  2  1  1  0  0  0  0
  3  2  2  0  0  0  0
  4  2  1  1  0  0  0
  4 10  5  0  0  0  0
  6  4  5  0  0  0  0
  6  7  5  0  0  0  0
  6 13  1  6  0  0  0
  7 12  1  0  0  0  0
  8  7  5  0  0  0  0
  8 11  1  6  0  0  0
  9  8  5  0  0  0  0
  9 15  1  0  0  0  0
 10  9  5  0  0  0  0
 10 14  1  0  0  0  0
 11 18  2  0  0  0  0
 13 16  1  0  0  0  0
 17 11  1  0  0  0  0
 19 17  1  0  0  0  0
M  END
