
 OpenBabel11112015493D

 60 62  0  0  1  0  0  0  0  0999 V2000
    1.2116    0.6995    0.0000 O   0  0  0  0  0  0  0  0  0  0  0  0
    0.0000    1.3990    0.0000 C   0  0  0  0  0  0  0  0  0  0  0  0
   -1.2116    0.6995    0.0000 O   0  0  0  0  0  0  0  0  0  0  0  0
    0.0389    2.5644    0.0000 N   0  0  0  0  0  0  0  0  0  0  0  0
    2.5032    0.4173    0.0000 H   0  0  0  0  0  0  0  0  0  0  0  0
    0.0001    3.6291    0.0000 N   0  0  0  0  0  0  0  0  0  0  0  0
    0.0207    4.4892   -0.0000 C   0  0  1  0  0  0  0  0  0  0  0  0
   -2.1851    4.6673   -0.0000 C   0  0  1  0  0  0  0  0  0  0  0  0
   -1.1456    6.1528    0.0000 C   0  0  1  0  0  0  0  0  0  0  0  0
   -0.1383    6.1218    0.0000 C   0  0  1  0  0  0  0  0  0  0  0  0
    1.4537    6.1606    0.0000 C   0  0  1  0  0  0  0  0  0  0  0  0
    1.3235    5.9621    0.0000 C   0  0  2  0  0  0  0  0  0  0  0  0
    0.0139    6.9065    0.0000 C   0  0  1  0  0  0  0  0  0  0  0  0
   -1.3854    6.1303    0.0000 C   0  0  0  0  0  0  0  0  0  0  0  0
   -1.3888    4.4562   -0.0000 C   0  0  0  0  0  0  0  0  0  0  0  0
    1.2174    5.8202    0.0000 N   0  0  0  0  0  0  0  0  0  0  0  0
    1.4543    6.1627    0.0000 C   0  0  0  0  0  0  0  0  0  0  0  0
   -2.5938    3.8486   -0.0000 H   0  0  0  0  0  0  0  0  0  0  0  0
   -1.1035    4.3741   -0.0000 H   0  0  0  0  0  0  0  0  0  0  0  0
   -0.8112    4.5432   -0.0000 H   0  0  0  0  0  0  0  0  0  0  0  0
    0.5515    7.2958    0.0000 C   0  0  0  0  0  0  0  0  0  0  0  0
    0.3641    7.8483    0.0000 N   0  0  0  0  0  0  0  0  0  0  0  0
   -0.2719    7.8503    0.0000 N   0  0  0  0  0  0  0  0  0  0  0  0
   -0.4942    7.2863    0.0000 N   0  0  0  0  0  0  0  0  0  0  0  0
    0.3857    8.5251    0.0000 C   0  0  1  0  0  0  0  0  0  0  0  0
    1.3434    7.4233    0.0000 H   0  0  0  0  0  0  0  0  0  0  0  0
    0.7761    6.5793    0.0000 H   0  0  0  0  0  0  0  0  0  0  0  0
   -0.5789    6.6851    0.0000 H   0  0  0  0  0  0  0  0  0  0  0  0
    1.4545    6.1634    0.0000 C   0  0  0  0  0  0  0  0  0  0  0  0
    1.4528    6.1613    0.0000 H   0  0  0  0  0  0  0  0  0  0  0  0
    1.4546    6.1637    0.0000 H   0  0  0  0  0  0  0  0  0  0  0  0
    1.4566    6.1661    0.0000 H   0  0  0  0  0  0  0  0  0  0  0  0
    1.4396    6.1408    0.0000 H   0  0  0  0  0  0  0  0  0  0  0  0
    1.4664    6.1751    0.0000 H   0  0  0  0  0  0  0  0  0  0  0  0
    0.9375    8.8227    0.0000 O   0  0  0  0  0  0  0  0  0  0  0  0
    0.1433    9.3798    0.0000 C   0  0  0  0  0  0  0  0  0  0  0  0
   -0.0870    8.8050    0.0000 C   0  0  0  0  0  0  0  0  0  0  0  0
    0.7479   10.0908    0.0000 C   0  0  0  0  0  0  0  0  0  0  0  0
   -0.8053    8.7918    0.0000 H   0  0  0  0  0  0  0  0  0  0  0  0
   -0.1706   10.0267    0.0000 H   0  0  0  0  0  0  0  0  0  0  0  0
   -0.7728    9.4033    0.0000 H   0  0  0  0  0  0  0  0  0  0  0  0
   -0.3993    8.0295    0.0000 H   0  0  0  0  0  0  0  0  0  0  0  0
    1.6584    9.3089    0.0000 H   0  0  0  0  0  0  0  0  0  0  0  0
    0.7267    9.3688    0.0000 C   0  0  2  0  0  0  0  0  0  0  0  0
    0.9981    8.0835    0.0000 H   0  0  0  0  0  0  0  0  0  0  0  0
   -1.4799    6.1220    0.0000 C   0  0  0  0  0  0  0  0  0  0  0  0
   -1.2573    6.0930    0.0000 H   0  0  0  0  0  0  0  0  0  0  0  0
   -1.5328    6.1176    0.0000 H   0  0  0  0  0  0  0  0  0  0  0  0
   -1.9915    6.1669    0.0000 H   0  0  0  0  0  0  0  0  0  0  0  0
   -0.5271    6.0720    0.0000 H   0  0  0  0  0  0  0  0  0  0  0  0
    3.2013    5.0832   -0.0000 H   0  0  0  0  0  0  0  0  0  0  0  0
    1.1966    5.8005    0.0000 H   0  0  0  0  0  0  0  0  0  0  0  0
    1.1485    5.7214    0.0000 H   0  0  0  0  0  0  0  0  0  0  0  0
    0.7943   11.5925    0.0000 C   0  0  0  0  0  0  0  0  0  0  0  0
    0.9114   12.5323    0.0000 C   0  0  0  0  0  0  0  0  0  0  0  0
   -0.9327   11.6786    0.0000 H   0  0  0  0  0  0  0  0  0  0  0  0
    1.8013   10.1060    0.0000 H   0  0  0  0  0  0  0  0  0  0  0  0
   -0.7653   14.0452    0.0000 O   0  0  0  0  0  0  0  0  0  0  0  0
    2.2222   13.8213    0.0000 O   0  0  0  0  0  0  0  0  0  0  0  0
   -0.8740   15.5554    0.0000 H   0  0  0  0  0  0  0  0  0  0  0  0
  1  5  1  0  0  0  0
  2  1  1  0  0  0  0
  3  2  2  0  0  0  0
  4  2  1  0  0  0  0
  6  4  2  0  0  0  0
  7  6  1  1  0  0  0
  7 12  5  0  0  0  0
  8  7  5  0  0  0  0
  8  9  5  0  0  0  0
  8 15  1  6  0  0  0
  9 14  1  6  0  0  0
 10  9  5  0  0  0  0
 10 13  1  1  0  0  0
 11 10  5  0  0  0  0
 11 17  1  6  0  0  0
 12 11  5  0  0  0  0
 12 16  1  6  0  0  0
 13 24  1  0  0  0  0
 13 28  1  1  0  0  0
 14 50  1  0  0  0  0
 14 51  1  0  0  0  0
 15 18  1  0  0  0  0
 15 19  1  0  0  0  0
 15 20  1  0  0  0  0
 16 52  1  0  0  0  0
 16 53  1  0  0  0  0
 17 33  1  0  0  0  0
 17 34  1  0  0  0  0
 21 13  1  0  0  0  0
 21 26  1  0  0  0  0
 21 27  1  0  0  0  0
 22 21  1  0  0  0  0
 23 22  1  0  0  0  0
 24 23  2  0  0  0  0
 25 22  1  0  0  0  0
 25 37  1  0  0  0  0
 25 45  1  1  0  0  0
 29 30  1  0  0  0  0
 29 31  1  0  0  0  0
 29 32  1  0  0  0  0
 29 17  1  0  0  0  0
 35 25  1  0  0  0  0
 36 44  1  0  0  0  0
 36 41  1  0  0  0  0
 37 36  1  0  0  0  0
 37 42  1  0  0  0  0
 38 44  1  0  0  0  0
 38 57  1  0  0  0  0
 39 37  1  0  0  0  0
 40 36  1  0  0  0  0
 44 35  1  0  0  0  0
 44 43  1  1  0  0  0
 46 47  1  0  0  0  0
 46 48  1  0  0  0  0
 46 49  1  0  0  0  0
 46 14  1  0  0  0  0
 54 38  2  3  0  0  0
 54 56  1  0  0  0  0
 55 54  1  0  0  0  0
 55 59  2  0  0  0  0
 58 55  1  0  0  0  0
 60 58  1  0  0  0  0
M  END
