
 OpenBabel10192021283D

 23 23  0  0  1  0  0  0  0  0999 V2000
    1.2116    0.6995    0.0000 O   0  0  0  0  0  0  0  0  0  0  0  0
    0.0000    1.3990    0.0000 C   0  0  0  0  0  0  0  0  0  0  0  0
   -1.2116    0.6995    0.0000 O   0  0  0  0  0  0  0  0  0  0  0  0
    0.0389    2.5644    0.0000 N   0  0  0  0  0  0  0  0  0  0  0  0
    2.5032    0.4173    0.0000 H   0  0  0  0  0  0  0  0  0  0  0  0
    0.0000    3.4695    0.0000 N   0  0  0  0  0  0  0  0  0  0  0  0
    0.0207    4.4892    0.0000 C   0  0  0  0  0  0  0  0  0  0  0  0
   -0.1237    5.4321    0.0000 C   0  0  0  0  0  0  0  0  0  0  0  0
    0.0407    7.0907    0.0000 C   0  0  1  0  0  0  0  0  0  0  0  0
    2.2823    8.9388    0.0000 C   0  0  0  0  0  0  0  0  0  0  0  0
    1.2124   11.1550    0.0000 C   0  0  2  0  0  0  0  0  0  0  0  0
   -1.6609   11.1974    0.0000 N   0  0  0  0  0  0  0  0  0  0  0  0
   -2.6286    8.8300    0.0000 N   0  0  0  0  0  0  0  0  0  0  0  0
    1.4385   13.0785    0.0000 C   0  0  0  0  0  0  0  0  0  0  0  0
   -5.0085    8.1565    0.0000 H   0  0  0  0  0  0  0  0  0  0  0  0
   -4.3974   13.4044    0.0000 H   0  0  0  0  0  0  0  0  0  0  0  0
    7.6065    6.9009    0.0000 H   0  0  0  0  0  0  0  0  0  0  0  0
    7.1578   10.6899    0.0000 H   0  0  0  0  0  0  0  0  0  0  0  0
    3.2884    4.4826    0.0000 H   0  0  0  0  0  0  0  0  0  0  0  0
   -1.8699    6.5097    0.0000 H   0  0  0  0  0  0  0  0  0  0  0  0
   -0.2381   14.5914    0.0000 O   0  0  0  0  0  0  0  0  0  0  0  0
    2.7493   14.3675    0.0000 O   0  0  0  0  0  0  0  0  0  0  0  0
   -0.3468   16.1016    0.0000 H   0  0  0  0  0  0  0  0  0  0  0  0
  1  5  1  0  0  0  0
  2  1  1  0  0  0  0
  3  2  2  0  0  0  0
  4  2  1  0  0  0  0
  6  4  2  0  0  0  0
  7  6  1  0  0  0  0
  8  7  3  0  0  0  0
  9  8  1  0  0  0  0
  9 13  1  0  0  0  0
  9 20  1  1  0  0  0
 10  9  1  0  0  0  0
 10 17  1  0  0  0  0
 10 19  1  0  0  0  0
 11 10  1  0  0  0  0
 11 18  1  1  0  0  0
 12 11  1  0  0  0  0
 13 12  1  0  0  0  0
 14 11  1  0  0  0  0
 14 22  2  0  0  0  0
 15 13  1  0  0  0  0
 16 12  1  0  0  0  0
 21 14  1  0  0  0  0
 23 21  1  0  0  0  0
M  END
