
 OpenBabel03252111233D

 74 80  0  0  1  0  0  0  0  0999 V2000
    1.7960   -0.2630    0.0140 O   0  0  0  0  0  0  0  0  0  0  0  0
    0.6210    0.3280    0.0040 C   0  0  0  0  0  0  0  0  0  0  0  0
   -0.3760   -0.3140    0.2670 O   0  0  0  0  0  0  0  0  0  0  0  0
    0.5150    1.7370   -0.1660 C   0  0  1  0  0  0  0  0  0  0  0  0
    2.5030    0.4170    0.0000 H   0  0  0  0  0  0  0  0  0  0  0  0
   -0.5820    3.7670    0.1370 C   0  0  0  0  0  0  0  0  0  0  0  0
    0.4810    4.4820   -0.3000 C   0  0  2  0  0  0  0  0  0  0  0  0
    1.4940    3.7360   -0.7770 C   0  0  0  0  0  0  0  0  0  0  0  0
    0.5280    5.8450   -0.1910 C   0  0  1  0  0  0  0  0  0  0  0  0
    2.3410    4.1530   -1.2760 H   0  0  0  0  0  0  0  0  0  0  0  0
   -1.4660    4.2360    0.5550 H   0  0  0  0  0  0  0  0  0  0  0  0
   -1.4290    1.9230    0.6320 H   0  0  0  0  0  0  0  0  0  0  0  0
    2.4080    1.8970   -1.0760 H   0  0  0  0  0  0  0  0  0  0  0  0
   -0.5660    2.4310    0.2070 C   0  0  0  0  0  0  0  0  0  0  0  0
    1.5270    2.4120   -0.6990 C   0  0  0  0  0  0  0  0  0  0  0  0
   -0.6300    6.5460   -0.0920 C   0  0  0  0  0  0  0  0  0  0  0  0
   -0.6810    7.8700    0.0970 C   0  0  1  0  0  0  0  0  0  0  0  0
    0.4490    8.5580    0.2870 C   0  0  1  0  0  0  0  0  0  0  0  0
    1.5940    7.8880    0.1390 C   0  0  0  0  0  0  0  0  0  0  0  0
    1.6780    6.5840   -0.1250 C   0  0  1  0  0  0  0  0  0  0  0  0
    1.0320   13.8230   -0.2480 C   0  0  2  0  0  0  0  0  0  0  0  0
   -1.5900    6.0550   -0.2270 H   0  0  0  0  0  0  0  0  0  0  0  0
    3.1530    6.1300   -0.2050 C   0  0  0  0  0  0  0  0  0  0  0  0
    2.5270    8.4220    0.1830 H   0  0  0  0  0  0  0  0  0  0  0  0
    0.4150    9.8860    0.5380 C   0  0  2  0  0  0  0  0  0  0  0  0
   -1.8740    9.8520    0.1920 C   0  0  0  0  0  0  0  0  0  0  0  0
   -0.7520   10.5480    0.4070 C   0  0  2  0  0  0  0  0  0  0  0  0
   -1.8470    8.5250    0.0770 C   0  0  0  0  0  0  0  0  0  0  0  0
    1.5190   10.5660    0.8940 C   0  0  0  0  0  0  0  0  0  0  0  0
   -2.8270   10.3750    0.1130 H   0  0  0  0  0  0  0  0  0  0  0  0
   -2.7810    7.9910   -0.0880 H   0  0  0  0  0  0  0  0  0  0  0  0
    1.6100   11.8800    0.9290 C   0  0  0  0  0  0  0  0  0  0  0  0
   -0.8030   12.0720    0.4690 C   0  0  0  0  0  0  0  0  0  0  0  0
    0.5940   12.6570    0.6040 C   0  0  2  0  0  0  0  0  0  0  0  0
    2.4600   10.0810    1.1080 H   0  0  0  0  0  0  0  0  0  0  0  0
    2.6110   12.2970    1.0240 H   0  0  0  0  0  0  0  0  0  0  0  0
   -1.2940   12.4470   -0.4310 H   0  0  0  0  0  0  0  0  0  0  0  0
   -1.4110   12.3910    1.3200 H   0  0  0  0  0  0  0  0  0  0  0  0
    2.0360   14.6540    0.3710 O   0  0  0  0  0  0  0  0  0  0  0  0
    1.1090   15.7340   -1.5240 C   0  0  0  0  0  0  0  0  0  0  0  0
    0.0680   14.8550   -0.8130 C   0  0  0  0  0  0  0  0  0  0  0  0
    2.8930   16.9110   -0.1620 C   0  0  2  0  0  0  0  0  0  0  0  0
   -0.4360   15.4000   -0.0100 H   0  0  0  0  0  0  0  0  0  0  0  0
    0.7640   16.7650   -1.6230 H   0  0  0  0  0  0  0  0  0  0  0  0
    1.2970   15.3510   -2.5310 H   0  0  0  0  0  0  0  0  0  0  0  0
   -0.6610   14.4400   -1.5110 H   0  0  0  0  0  0  0  0  0  0  0  0
    3.1800   15.0940   -1.2810 H   0  0  0  0  0  0  0  0  0  0  0  0
    2.4070   15.5750   -0.6720 C   0  0  1  0  0  0  0  0  0  0  0  0
    1.5050   13.3460   -1.1150 H   0  0  0  0  0  0  0  0  0  0  0  0
    2.0240   17.7460    0.4090 C   0  0  0  0  0  0  0  0  0  0  0  0
    2.3090   19.0410    0.5150 C   0  0  1  0  0  0  0  0  0  0  0  0
    3.5120   19.4970    0.1310 C   0  0  1  0  0  0  0  0  0  0  0  0
    4.4380   18.6290   -0.2950 C   0  0  0  0  0  0  0  0  0  0  0  0
    4.1200   17.3450   -0.4610 C   0  0  0  0  0  0  0  0  0  0  0  0
    2.9180   23.0890    0.2000 C   0  0  0  0  0  0  0  0  0  0  0  0
    1.0250   17.3910    0.6590 H   0  0  0  0  0  0  0  0  0  0  0  0
    4.8420   16.6720   -0.9200 H   0  0  0  0  0  0  0  0  0  0  0  0
    5.4230   18.9740   -0.6050 H   0  0  0  0  0  0  0  0  0  0  0  0
    3.7360   20.8150    0.1000 C   0  0  0  0  0  0  0  0  0  0  0  0
    1.5760   21.2080    0.8200 C   0  0  0  0  0  0  0  0  0  0  0  0
    2.7510   21.6840    0.3890 C   0  0  2  0  0  0  0  0  0  0  0  0
    1.3630   19.8980    0.9020 C   0  0  0  0  0  0  0  0  0  0  0  0
    4.7000   21.1720   -0.2560 H   0  0  0  0  0  0  0  0  0  0  0  0
    0.7650   21.8810    1.0830 H   0  0  0  0  0  0  0  0  0  0  0  0
    0.3870   19.5320    1.2170 H   0  0  0  0  0  0  0  0  0  0  0  0
    3.5840    5.1700    0.9220 C   0  0  0  0  0  0  0  0  0  0  0  0
    2.7240    4.7920    1.4800 H   0  0  0  0  0  0  0  0  0  0  0  0
    4.2360    5.6900    1.6260 H   0  0  0  0  0  0  0  0  0  0  0  0
    4.1350    4.3240    0.5080 H   0  0  0  0  0  0  0  0  0  0  0  0
    3.4130    5.7720   -1.2010 H   0  0  0  0  0  0  0  0  0  0  0  0
    3.8470    6.9690   -0.1280 H   0  0  0  0  0  0  0  0  0  0  0  0
    1.9200   23.9400    0.0930 O   0  0  0  0  0  0  0  0  0  0  0  0
    4.0430   23.5090    0.0110 O   0  0  0  0  0  0  0  0  0  0  0  0
    1.0650   23.4740    0.0000 H   0  0  0  0  0  0  0  0  0  0  0  0
  1  5  1  0  0  0  0
  2  1  1  0  0  0  0
  3  2  2  0  0  0  0
  4  2  1  1  0  0  0
  4 15  5  0  0  0  0
  4 14  5  0  0  0  0
  6  7  5  0  0  0  0
  6 14  5  0  0  0  0
  7  8  5  1  0  0  0
  8 10  1  0  0  0  0
  9  7  1  0  0  0  0
  9 16  5  1  0  0  0
  9 20  5  0  0  0  0
 11  6  1  0  0  0  0
 12 14  1  0  0  0  0
 15  8  5  0  0  0  0
 15 13  1  0  0  0  0
 16 22  1  0  0  0  0
 17 16  5  6  0  0  0
 18 17  5  0  0  0  0
 18 19  5  6  0  0  0
 18 25  5  0  0  0  0
 19 24  1  0  0  0  0
 20 19  5  0  0  0  0
 20 23  1  1  0  0  0
 21 34  1  0  0  0  0
 21 41  1  0  0  0  0
 21 49  1  6  0  0  0
 23 70  1  0  0  0  0
 23 71  1  0  0  0  0
 25 27  5  0  0  0  0
 25 29  5  6  0  0  0
 26 28  5  0  0  0  0
 26 30  1  0  0  0  0
 27 26  5  6  0  0  0
 28 17  5  0  0  0  0
 28 31  1  0  0  0  0
 29 35  1  0  0  0  0
 32 29  5  0  0  0  0
 32 36  1  0  0  0  0
 33 27  5  0  0  0  0
 33 37  1  0  0  0  0
 34 33  5  0  0  0  0
 34 32  5  6  0  0  0
 38 33  1  0  0  0  0
 39 21  1  0  0  0  0
 40 48  1  0  0  0  0
 40 45  1  0  0  0  0
 41 40  1  0  0  0  0
 41 46  1  0  0  0  0
 42 48  1  0  0  0  0
 42 50  5  6  0  0  0
 42 54  5  0  0  0  0
 43 41  1  0  0  0  0
 44 40  1  0  0  0  0
 48 39  1  0  0  0  0
 48 47  1  6  0  0  0
 50 56  1  0  0  0  0
 51 50  5  6  0  0  0
 52 51  5  0  0  0  0
 52 53  5  6  0  0  0
 52 59  5  0  0  0  0
 53 58  1  0  0  0  0
 54 53  5  0  0  0  0
 54 57  1  0  0  0  0
 55 73  2  0  0  0  0
 59 61  5  0  0  0  0
 59 63  1  0  0  0  0
 60 62  5  0  0  0  0
 60 64  1  0  0  0  0
 61 60  5  0  0  0  0
 61 55  1  6  0  0  0
 62 51  5  0  0  0  0
 62 65  1  0  0  0  0
 66 67  1  0  0  0  0
 66 68  1  0  0  0  0
 66 69  1  0  0  0  0
 66 23  1  0  0  0  0
 72 55  1  0  0  0  0
 74 72  1  0  0  0  0
M  END
