
 OpenBabel03312114133D

 58 63  0  0  1  0  0  0  0  0999 V2000
    1.8600   -0.3310    0.0360 O   0  0  0  0  0  0  0  0  0  0  0  0
    0.7740    0.3260    0.2670 C   0  0  0  0  0  0  0  0  0  0  0  0
   -0.2640   -0.3010    0.3720 O   0  0  0  0  0  0  0  0  0  0  0  0
    0.7750    1.7560    0.1320 C   0  0  2  0  0  0  0  0  0  0  0  0
    2.5030    0.4170    0.0000 H   0  0  0  0  0  0  0  0  0  0  0  0
   -0.4320    2.3290    0.0500 C   0  0  0  0  0  0  0  0  0  0  0  0
   -0.5680    3.6260   -0.1470 C   0  0  0  0  0  0  0  0  0  0  0  0
    0.4910    4.4220   -0.3170 C   0  0  2  0  0  0  0  0  0  0  0  0
    1.7220    3.8650   -0.2730 C   0  0  2  0  0  0  0  0  0  0  0  0
    1.8820    2.5480    0.0170 C   0  0  1  0  0  0  0  0  0  0  0  0
    0.3490    5.6990   -0.5130 N   0  0  0  0  0  0  0  0  0  0  0  0
   -1.5790    4.0290   -0.2020 H   0  0  0  0  0  0  0  0  0  0  0  0
   -1.3500    1.7510    0.1300 H   0  0  0  0  0  0  0  0  0  0  0  0
    3.1590    2.1200    0.1920 C   0  0  0  0  0  0  0  0  0  0  0  0
    2.8140    4.6300   -0.4880 C   0  0  0  0  0  0  0  0  0  0  0  0
    4.0430    4.1620   -0.3490 C   0  0  0  0  0  0  0  0  0  0  0  0
    4.2150    2.9040    0.0160 C   0  0  0  0  0  0  0  0  0  0  0  0
    2.7400    5.6700   -0.7860 H   0  0  0  0  0  0  0  0  0  0  0  0
    4.9020    4.8100   -0.5080 H   0  0  0  0  0  0  0  0  0  0  0  0
    5.2180    2.5140    0.1660 H   0  0  0  0  0  0  0  0  0  0  0  0
    3.4360    1.1330    0.5210 H   0  0  0  0  0  0  0  0  0  0  0  0
   -0.4080    6.2080    0.3880 N   0  0  0  0  0  0  0  0  0  0  0  0
   -0.3160    7.4990    0.2680 C   0  0  2  0  0  0  0  0  0  0  0  0
   -1.4660    8.1420    0.0910 C   0  0  0  0  0  0  0  0  0  0  0  0
   -1.4960    9.4440   -0.1390 C   0  0  0  0  0  0  0  0  0  0  0  0
   -0.3760   10.1660   -0.2310 C   0  0  2  0  0  0  0  0  0  0  0  0
    0.8070    9.5360   -0.0630 C   0  0  1  0  0  0  0  0  0  0  0  0
    0.8250    8.2340    0.2580 C   0  0  1  0  0  0  0  0  0  0  0  0
    2.0130   10.1020   -0.2040 C   0  0  0  0  0  0  0  0  0  0  0  0
    3.1710    9.5410    0.0160 N   0  0  0  0  0  0  0  0  0  0  0  0
    3.1710    8.3500    0.5190 N   0  0  0  0  0  0  0  0  0  0  0  0
    2.0240    7.7310    0.5790 C   0  0  0  0  0  0  0  0  0  0  0  0
   -0.6310   11.6500   -0.4690 C   0  0  1  0  0  0  0  0  0  0  0  0
   -2.4690    9.9130   -0.2740 H   0  0  0  0  0  0  0  0  0  0  0  0
    2.1020   11.0920   -0.6020 H   0  0  0  0  0  0  0  0  0  0  0  0
    2.0760    6.7260    0.9820 H   0  0  0  0  0  0  0  0  0  0  0  0
   -2.4080    7.5960    0.1100 H   0  0  0  0  0  0  0  0  0  0  0  0
    0.3560   12.6980    0.0870 C   0  0  0  0  0  0  0  0  0  0  0  0
   -0.3300   13.9950    0.0790 N   0  0  0  0  0  0  0  0  0  0  0  0
   -0.7950   13.7310   -0.8930 N   0  0  0  0  0  0  0  0  0  0  0  0
   -1.2660   12.5520   -0.4500 N   0  0  0  0  0  0  0  0  0  0  0  0
   -0.0280   15.3000    0.1630 C   0  0  2  0  0  0  0  0  0  0  0  0
    1.2420   12.7940   -0.5550 H   0  0  0  0  0  0  0  0  0  0  0  0
    0.6860   12.4430    1.1010 H   0  0  0  0  0  0  0  0  0  0  0  0
   -1.6060   11.8410    0.0010 H   0  0  0  0  0  0  0  0  0  0  0  0
   -0.7220   17.5100    0.2240 C   0  0  0  0  0  0  0  0  0  0  0  0
    0.5440   17.9370    0.1530 C   0  0  1  0  0  0  0  0  0  0  0  0
    1.5260   17.0240    0.1280 C   0  0  0  0  0  0  0  0  0  0  0  0
    0.8280   19.3310    0.0850 C   0  0  0  0  0  0  0  0  0  0  0  0
    2.5700   17.3220    0.0770 H   0  0  0  0  0  0  0  0  0  0  0  0
   -1.5570   18.2080    0.2520 H   0  0  0  0  0  0  0  0  0  0  0  0
   -2.0440   15.8990    0.2680 H   0  0  0  0  0  0  0  0  0  0  0  0
    2.0520   15.0000    0.0860 H   0  0  0  0  0  0  0  0  0  0  0  0
   -1.0020   16.2140    0.2310 C   0  0  0  0  0  0  0  0  0  0  0  0
    1.2400   15.7220    0.1330 C   0  0  0  0  0  0  0  0  0  0  0  0
   -0.1480   20.1990    0.0100 O   0  0  0  0  0  0  0  0  0  0  0  0
    1.9810   19.7090    0.0360 O   0  0  0  0  0  0  0  0  0  0  0  0
   -0.9820   19.6890    0.0000 H   0  0  0  0  0  0  0  0  0  0  0  0
  1  5  1  0  0  0  0
  2  1  1  0  0  0  0
  3  2  2  0  0  0  0
  4  2  1  6  0  0  0
  4 10  5  0  0  0  0
  6  4  5  0  0  0  0
  6  7  5  0  0  0  0
  6 13  1  0  0  0  0
  7 12  1  0  0  0  0
  8  7  5  0  0  0  0
  8 11  1  1  0  0  0
  9  8  5  0  0  0  0
  9 15  5  1  0  0  0
 10  9  5  0  0  0  0
 10 14  5  1  0  0  0
 14 17  5  0  0  0  0
 14 21  1  0  0  0  0
 15 18  1  0  0  0  0
 16 15  5  0  0  0  0
 16 19  1  0  0  0  0
 17 16  5  0  0  0  0
 17 20  1  0  0  0  0
 22 11  2  0  0  0  0
 23 22  1  6  0  0  0
 23 28  5  0  0  0  0
 24 23  5  0  0  0  0
 24 25  5  0  0  0  0
 24 37  1  0  0  0  0
 25 34  1  0  0  0  0
 26 25  5  1  0  0  0
 26 33  1  0  0  0  0
 27 26  5  0  0  0  0
 27 29  5  6  0  0  0
 28 27  5  0  0  0  0
 28 32  5  1  0  0  0
 29 35  1  0  0  0  0
 30 29  5  0  0  0  0
 30 31  5  0  0  0  0
 31 32  5  0  0  0  0
 32 36  1  0  0  0  0
 33 41  1  0  0  0  0
 33 45  1  1  0  0  0
 38 33  1  0  0  0  0
 38 43  1  0  0  0  0
 38 44  1  0  0  0  0
 39 38  1  0  0  0  0
 40 39  1  0  0  0  0
 41 40  2  0  0  0  0
 42 39  1  6  0  0  0
 42 55  5  0  0  0  0
 42 54  5  0  0  0  0
 46 47  5  0  0  0  0
 46 54  5  0  0  0  0
 47 48  5  0  0  0  0
 47 49  1  6  0  0  0
 48 50  1  0  0  0  0
 49 57  2  0  0  0  0
 51 46  1  0  0  0  0
 52 54  1  0  0  0  0
 55 48  5  0  0  0  0
 55 53  1  0  0  0  0
 56 49  1  0  0  0  0
 58 56  1  0  0  0  0
M  END
