
 OpenBabel02052118083D

 33 34  0  0  1  0  0  0  0  0999 V2000
    1.5950    0.0950    0.1070 O   0  0  0  0  0  0  0  0  0  0  0  0
    0.6540    1.0190    0.1230 C   0  0  0  0  0  0  0  0  0  0  0  0
   -0.4590    0.5320    0.1930 O   0  0  0  0  0  0  0  0  0  0  0  0
    0.6770    2.4620    0.0750 C   0  0  2  0  0  0  0  0  0  0  0  0
    2.5030    0.4170    0.0000 H   0  0  0  0  0  0  0  0  0  0  0  0
   -0.4620    3.1730    0.0610 C   0  0  0  0  0  0  0  0  0  0  0  0
   -0.4510    4.5050    0.0060 C   0  0  0  0  0  0  0  0  0  0  0  0
    0.6960    5.1920   -0.0370 C   0  0  1  0  0  0  0  0  0  0  0  0
    1.8500    4.4960   -0.0160 C   0  0  1  0  0  0  0  0  0  0  0  0
    1.8280    3.1500    0.0390 C   0  0  0  0  0  0  0  0  0  0  0  0
    0.6130    6.5120   -0.1310 C   0  0  0  0  0  0  0  0  0  0  0  0
   -1.4070    5.0290   -0.0140 H   0  0  0  0  0  0  0  0  0  0  0  0
   -1.4330    2.6840    0.0870 H   0  0  0  0  0  0  0  0  0  0  0  0
    2.7710    2.6080    0.0510 H   0  0  0  0  0  0  0  0  0  0  0  0
    3.3870    5.2850   -0.0680 Cl  0  0  0  0  0  0  0  0  0  0  0  0
    0.4050    7.6760   -0.2700 C   0  0  0  0  0  0  0  0  0  0  0  0
   -0.0920    9.0560   -0.5610 C   0  0  2  0  0  0  0  0  0  0  0  0
    0.6160   10.2020    0.0340 O   0  0  0  0  0  0  0  0  0  0  0  0
   -1.7030   10.7310    0.0330 C   0  0  0  0  0  0  0  0  0  0  0  0
   -1.5440    9.2210   -0.0900 C   0  0  0  0  0  0  0  0  0  0  0  0
   -0.1110   12.6330    0.2790 C   0  0  0  0  0  0  0  0  0  0  0  0
   -1.6860    8.7570    0.8910 H   0  0  0  0  0  0  0  0  0  0  0  0
   -1.8880   11.1620   -0.9550 H   0  0  0  0  0  0  0  0  0  0  0  0
   -2.5220   11.0060    0.7020 H   0  0  0  0  0  0  0  0  0  0  0  0
   -2.2580    8.7910   -0.7960 H   0  0  0  0  0  0  0  0  0  0  0  0
   -0.3380   11.0610    1.6600 H   0  0  0  0  0  0  0  0  0  0  0  0
   -0.3410   11.1860    0.5740 C   0  0  2  0  0  0  0  0  0  0  0  0
   -0.0630    9.1970   -1.6450 H   0  0  0  0  0  0  0  0  0  0  0  0
   -0.0690   13.8530    0.1090 C   0  0  0  0  0  0  0  0  0  0  0  0
   -0.0750   15.3200   -0.0500 C   0  0  0  0  0  0  0  0  0  0  0  0
   -1.1920   16.0040    0.1090 O   0  0  0  0  0  0  0  0  0  0  0  0
    0.9610   15.9060   -0.2880 O   0  0  0  0  0  0  0  0  0  0  0  0
   -1.0420   16.9830    0.0000 H   0  0  0  0  0  0  0  0  0  0  0  0
  1  5  1  0  0  0  0
  2  1  1  0  0  0  0
  3  2  2  0  0  0  0
  4  2  1  6  0  0  0
  4 10  5  0  0  0  0
  6  4  5  0  0  0  0
  6  7  5  0  0  0  0
  6 13  1  0  0  0  0
  7 12  1  0  0  0  0
  8  7  5  0  0  0  0
  8 11  1  6  0  0  0
  9  8  5  0  0  0  0
  9 15  1  6  0  0  0
 10  9  5  0  0  0  0
 10 14  1  0  0  0  0
 16 11  3  0  0  0  0
 17 16  1  0  0  0  0
 17 20  1  0  0  0  0
 17 28  1  6  0  0  0
 18 17  1  0  0  0  0
 19 27  1  0  0  0  0
 19 24  1  0  0  0  0
 20 19  1  0  0  0  0
 20 25  1  0  0  0  0
 21 27  1  0  0  0  0
 22 20  1  0  0  0  0
 23 19  1  0  0  0  0
 27 18  1  0  0  0  0
 27 26  1  1  0  0  0
 29 21  3  0  0  0  0
 30 29  1  0  0  0  0
 30 32  2  0  0  0  0
 31 30  1  0  0  0  0
 33 31  1  0  0  0  0
M  END
