
 OpenBabel01272115323D

 24 24  0  0  1  0  0  0  0  0999 V2000
    1.5110    0.4530   -0.1490 O   0  0  0  0  0  0  0  0  0  0  0  0
    0.6700    1.5120   -0.2180 C   0  0  0  0  0  0  0  0  0  0  0  0
   -0.4000    0.9950   -0.4720 O   0  0  0  0  0  0  0  0  0  0  0  0
    0.4570    2.9730   -0.1170 C   0  0  1  0  0  0  0  0  0  0  0  0
    2.5030    0.4170    0.0000 H   0  0  0  0  0  0  0  0  0  0  0  0
   -0.7460    3.5620   -0.3240 C   0  0  0  0  0  0  0  0  0  0  0  0
   -0.9770    4.8880   -0.2310 C   0  0  0  0  0  0  0  0  0  0  0  0
    0.0150    5.8050    0.0720 C   0  0  1  0  0  0  0  0  0  0  0  0
    1.2340    5.1660    0.3340 C   0  0  2  0  0  0  0  0  0  0  0  0
    1.4260    3.8280    0.2180 C   0  0  0  0  0  0  0  0  0  0  0  0
   -0.1700    7.1950   -0.1010 C   0  0  0  0  0  0  0  0  0  0  0  0
   -1.9900    5.2470   -0.4010 H   0  0  0  0  0  0  0  0  0  0  0  0
   -1.6170    2.9590   -0.5760 H   0  0  0  0  0  0  0  0  0  0  0  0
    2.4140    3.4250    0.4290 H   0  0  0  0  0  0  0  0  0  0  0  0
    2.2210    5.9850    0.7280 N   0  0  0  0  0  0  0  0  0  0  0  0
   -1.0790    8.1990    0.1670 C   0  0  0  0  0  0  0  0  0  0  0  0
   -0.8850    9.6980   -0.1360 C   0  0  0  0  0  0  0  0  0  0  0  0
   -2.0210    7.9450    0.6520 H   0  0  0  0  0  0  0  0  0  0  0  0
    0.6970    7.6130   -0.6060 H   0  0  0  0  0  0  0  0  0  0  0  0
    3.0870    6.0150    0.1940 H   0  0  0  0  0  0  0  0  0  0  0  0
    1.9960    6.9420    0.9950 H   0  0  0  0  0  0  0  0  0  0  0  0
   -1.8580   10.5710    0.1880 O   0  0  0  0  0  0  0  0  0  0  0  0
    0.1470   10.1090   -0.6250 O   0  0  0  0  0  0  0  0  0  0  0  0
   -1.6990   11.5770    0.0000 H   0  0  0  0  0  0  0  0  0  0  0  0
  1  5  1  0  0  0  0
  2  1  1  0  0  0  0
  3  2  2  0  0  0  0
  4  2  1  1  0  0  0
  4 10  5  0  0  0  0
  6  4  5  0  0  0  0
  6  7  5  0  0  0  0
  6 13  1  0  0  0  0
  7 12  1  0  0  0  0
  8  7  5  0  0  0  0
  8 11  1  6  0  0  0
  9  8  5  0  0  0  0
  9 15  1  1  0  0  0
 10  9  5  0  0  0  0
 10 14  1  0  0  0  0
 11 19  1  0  0  0  0
 15 20  1  0  0  0  0
 15 21  1  0  0  0  0
 16 11  2  0  0  0  0
 16 18  1  0  0  0  0
 17 16  1  0  0  0  0
 17 23  2  0  0  0  0
 22 17  1  0  0  0  0
 24 22  1  0  0  0  0
M  END
