
 OpenBabel02032115563D

 34 35  0  0  1  0  0  0  0  0999 V2000
    1.7180    0.4200   -0.6800 O   0  0  0  0  0  0  0  0  0  0  0  0
    0.9510    1.3900   -1.2870 C   0  0  0  0  0  0  0  0  0  0  0  0
    0.0390    0.7640   -1.7900 O   0  0  0  0  0  0  0  0  0  0  0  0
    0.6850    2.8190   -1.6080 C   0  0  1  0  0  0  0  0  0  0  0  0
    2.5030    0.4170    0.0000 H   0  0  0  0  0  0  0  0  0  0  0  0
   -0.4290    3.3280   -2.2150 C   0  0  0  0  0  0  0  0  0  0  0  0
   -0.6870    4.6650   -2.3440 C   0  0  0  0  0  0  0  0  0  0  0  0
    0.1250    5.6240   -1.8430 C   0  0  2  0  0  0  0  0  0  0  0  0
    1.1990    5.0760   -1.2420 C   0  0  2  0  0  0  0  0  0  0  0  0
    1.5150    3.7660   -1.1870 C   0  0  0  0  0  0  0  0  0  0  0  0
   -0.1920    6.9580   -1.7300 C   0  0  0  0  0  0  0  0  0  0  0  0
   -1.6410    4.9610   -2.7780 H   0  0  0  0  0  0  0  0  0  0  0  0
   -1.2090    2.6500   -2.5630 H   0  0  0  0  0  0  0  0  0  0  0  0
    2.3480    3.4380   -0.5600 H   0  0  0  0  0  0  0  0  0  0  0  0
    1.3410    5.4830   -0.0480 O   0  0  0  0  0  0  0  0  0  0  0  0
    0.5990    4.7980    0.0000 H   0  0  0  0  0  0  0  0  0  0  0  0
   -0.2110    8.2220   -1.5980 C   0  0  0  0  0  0  0  0  0  0  0  0
    0.0010    9.6010   -1.7270 N   0  0  0  0  0  0  0  0  0  0  0  0
   -0.4710   10.6550   -1.0680 N   0  0  0  0  0  0  0  0  0  0  0  0
   -0.8620   12.0860   -0.4740 C   0  0  1  0  0  0  0  0  0  0  0  0
   -0.0020   13.4060   -0.7600 C   0  0  0  0  0  0  0  0  0  0  0  0
   -0.8250   14.6590   -0.1740 C   0  0  2  0  0  0  0  0  0  0  0  0
   -2.1820   14.1890   -0.5470 N   0  0  0  0  0  0  0  0  0  0  0  0
   -2.2170   12.6980   -0.6030 N   0  0  0  0  0  0  0  0  0  0  0  0
   -0.5030   16.1970   -0.5720 C   0  0  0  0  0  0  0  0  0  0  0  0
   -2.8450   12.3940    0.1400 H   0  0  0  0  0  0  0  0  0  0  0  0
   -2.3990   14.4690   -1.5020 H   0  0  0  0  0  0  0  0  0  0  0  0
    0.9850   13.3360   -0.2980 H   0  0  0  0  0  0  0  0  0  0  0  0
   -0.7500   14.6200    0.9160 H   0  0  0  0  0  0  0  0  0  0  0  0
    0.1320   13.5250   -1.8380 H   0  0  0  0  0  0  0  0  0  0  0  0
   -0.7620   11.9270    0.6110 H   0  0  0  0  0  0  0  0  0  0  0  0
   -0.9270   17.2420    0.2180 O   0  0  0  0  0  0  0  0  0  0  0  0
    0.0990   16.4390   -1.5980 O   0  0  0  0  0  0  0  0  0  0  0  0
   -0.7550   18.2810    0.0000 H   0  0  0  0  0  0  0  0  0  0  0  0
  1  5  1  0  0  0  0
  2  1  1  0  0  0  0
  3  2  2  0  0  0  0
  4  2  1  1  0  0  0
  4 10  5  0  0  0  0
  6  4  5  0  0  0  0
  6  7  5  0  0  0  0
  6 13  1  0  0  0  0
  7 12  1  0  0  0  0
  8  7  5  0  0  0  0
  8 11  1  1  0  0  0
  9  8  5  0  0  0  0
  9 15  1  1  0  0  0
 10  9  5  0  0  0  0
 10 14  1  0  0  0  0
 15 16  1  0  0  0  0
 17 11  3  0  0  0  0
 18 17  1  0  0  0  0
 19 18  2  0  0  0  0
 20 19  1  0  0  0  0
 20 24  1  0  0  0  0
 20 31  1  1  0  0  0
 21 20  1  0  0  0  0
 21 28  1  0  0  0  0
 21 30  1  0  0  0  0
 22 21  1  0  0  0  0
 22 29  1  1  0  0  0
 23 22  1  0  0  0  0
 24 23  1  0  0  0  0
 25 22  1  0  0  0  0
 25 33  2  0  0  0  0
 26 24  1  0  0  0  0
 27 23  1  0  0  0  0
 32 25  1  0  0  0  0
 34 32  1  0  0  0  0
M  END
