
 OpenBabel02052118083D

 37 38  0  0  1  0  0  0  0  0999 V2000
    1.7290   -0.1680   -0.1820 O   0  0  0  0  0  0  0  0  0  0  0  0
    0.6230    0.5460   -0.2010 C   0  0  0  0  0  0  0  0  0  0  0  0
   -0.3930   -0.0800   -0.4340 O   0  0  0  0  0  0  0  0  0  0  0  0
    0.4880    1.9720   -0.0380 C   0  0  1  0  0  0  0  0  0  0  0  0
    2.5030    0.4170    0.0000 H   0  0  0  0  0  0  0  0  0  0  0  0
   -0.6810    2.5720   -0.2930 C   0  0  0  0  0  0  0  0  0  0  0  0
   -0.8190    3.8940   -0.2170 C   0  0  0  0  0  0  0  0  0  0  0  0
    0.1990    4.7090    0.1180 C   0  0  1  0  0  0  0  0  0  0  0  0
    1.3590    4.0840    0.4820 C   0  0  2  0  0  0  0  0  0  0  0  0
    1.5090    2.7440    0.3710 C   0  0  1  0  0  0  0  0  0  0  0  0
    0.0170    6.0660    0.0460 C   0  0  2  0  0  0  0  0  0  0  0  0
   -1.7870    4.2800   -0.5220 H   0  0  0  0  0  0  0  0  0  0  0  0
   -1.5470    1.9980   -0.6170 H   0  0  0  0  0  0  0  0  0  0  0  0
    3.7750    2.3080   -0.2650 C   0  0  0  0  0  0  0  0  0  0  0  0
    2.3380    4.7160    1.1010 C   0  0  0  0  0  0  0  0  0  0  0  0
   -1.1940    6.6620    0.1420 C   0  0  0  0  0  0  0  0  0  0  0  0
   -1.3460    7.9940    0.0810 C   0  0  0  0  0  0  0  0  0  0  0  0
   -0.2930    8.7970   -0.1130 C   0  0  2  0  0  0  0  0  0  0  0  0
    0.8980    8.2230   -0.2680 C   0  0  0  0  0  0  0  0  0  0  0  0
    1.0430    6.9070   -0.1930 C   0  0  0  0  0  0  0  0  0  0  0  0
   -0.3650   10.1310   -0.1580 C   0  0  0  0  0  0  0  0  0  0  0  0
   -2.3420    8.4140    0.2030 H   0  0  0  0  0  0  0  0  0  0  0  0
   -2.0960    6.0890    0.3350 H   0  0  0  0  0  0  0  0  0  0  0  0
    2.0420    6.5560   -0.4120 H   0  0  0  0  0  0  0  0  0  0  0  0
    1.7830    8.8250   -0.4660 H   0  0  0  0  0  0  0  0  0  0  0  0
    3.1810    5.2560    1.6440 N   0  0  0  0  0  0  0  0  0  0  0  0
    3.3630    2.5690   -1.2450 H   0  0  0  0  0  0  0  0  0  0  0  0
    4.3350    1.3730   -0.3420 H   0  0  0  0  0  0  0  0  0  0  0  0
    4.4410    3.1020    0.0810 H   0  0  0  0  0  0  0  0  0  0  0  0
    2.7030    2.1320    0.6980 O   0  0  0  0  0  0  0  0  0  0  0  0
   -1.3610   11.0290   -0.0320 C   0  0  0  0  0  0  0  0  0  0  0  0
   -1.0860   12.4910   -0.0980 C   0  0  0  0  0  0  0  0  0  0  0  0
   -2.3920   10.7220    0.1380 H   0  0  0  0  0  0  0  0  0  0  0  0
    0.6010   10.6060   -0.3210 H   0  0  0  0  0  0  0  0  0  0  0  0
   -2.1230   13.2650    0.0510 O   0  0  0  0  0  0  0  0  0  0  0  0
    0.0190   12.9690   -0.2540 O   0  0  0  0  0  0  0  0  0  0  0  0
   -1.7700   14.1750    0.0000 H   0  0  0  0  0  0  0  0  0  0  0  0
  1  5  1  0  0  0  0
  2  1  1  0  0  0  0
  3  2  2  0  0  0  0
  4  2  1  1  0  0  0
  4 10  5  0  0  0  0
  6  4  5  0  0  0  0
  6  7  5  0  0  0  0
  6 13  1  0  0  0  0
  7 12  1  0  0  0  0
  8  7  5  6  0  0  0
  8 11  1  0  0  0  0
  9  8  5  0  0  0  0
  9 15  1  1  0  0  0
 10  9  5  0  0  0  0
 10 30  1  1  0  0  0
 11 16  5  6  0  0  0
 11 20  5  0  0  0  0
 14 27  1  0  0  0  0
 14 28  1  0  0  0  0
 14 29  1  0  0  0  0
 14 30  1  0  0  0  0
 15 26  3  0  0  0  0
 16 17  5  0  0  0  0
 16 23  1  0  0  0  0
 17 22  1  0  0  0  0
 18 17  5  0  0  0  0
 18 21  1  1  0  0  0
 19 18  5  0  0  0  0
 19 25  1  0  0  0  0
 20 19  5  0  0  0  0
 20 24  1  0  0  0  0
 21 34  1  0  0  0  0
 31 21  2  0  0  0  0
 31 33  1  0  0  0  0
 32 31  1  0  0  0  0
 32 36  2  0  0  0  0
 35 32  1  0  0  0  0
 37 35  1  0  0  0  0
M  END
