
 OpenBabel02032115563D

 32 33  0  0  1  0  0  0  0  0999 V2000
    1.6510   -0.0040   -0.3780 O   0  0  0  0  0  0  0  0  0  0  0  0
    0.4910    0.6260   -0.7080 C   0  0  0  0  0  0  0  0  0  0  0  0
   -0.4180   -0.1800   -0.6850 O   0  0  0  0  0  0  0  0  0  0  0  0
   -0.0220    1.9520   -1.0990 C   0  0  1  0  0  0  0  0  0  0  0  0
    2.5030    0.4170    0.0000 H   0  0  0  0  0  0  0  0  0  0  0  0
   -1.3090    2.3290   -0.9170 C   0  0  0  0  0  0  0  0  0  0  0  0
   -1.6630    3.6390   -0.9150 C   0  0  2  0  0  0  0  0  0  0  0  0
   -0.7640    4.6110   -1.1900 C   0  0  2  0  0  0  0  0  0  0  0  0
    0.4530    4.2110   -1.5610 C   0  0  0  0  0  0  0  0  0  0  0  0
    0.8220    2.9480   -1.3760 C   0  0  1  0  0  0  0  0  0  0  0  0
   -1.0070    6.1200   -0.9270 C   0  0  2  0  0  0  0  0  0  0  0  0
   -2.7040    3.8460   -0.5850 C   0  0  0  0  0  0  0  0  0  0  0  0
   -2.0390    1.5770   -0.6070 H   0  0  0  0  0  0  0  0  0  0  0  0
    1.6060    2.9680   -0.3840 O   0  0  0  0  0  0  0  0  0  0  0  0
    1.2400    4.9540   -1.6670 H   0  0  0  0  0  0  0  0  0  0  0  0
    0.6650    2.9630    0.0000 H   0  0  0  0  0  0  0  0  0  0  0  0
    0.2460    6.9820   -0.5350 C   0  0  0  0  0  0  0  0  0  0  0  0
   -0.1540    8.3550   -0.1280 N   0  0  0  0  0  0  0  0  0  0  0  0
   -0.9240    7.8880    0.5100 N   0  0  0  0  0  0  0  0  0  0  0  0
   -1.4150    6.9020   -0.2570 N   0  0  0  0  0  0  0  0  0  0  0  0
    0.1800    9.6610    0.0170 C   0  0  0  0  0  0  0  0  0  0  0  0
    0.8620    6.4910    0.2410 H   0  0  0  0  0  0  0  0  0  0  0  0
    0.8900    7.0800   -1.4150 H   0  0  0  0  0  0  0  0  0  0  0  0
   -1.5750    6.5940   -1.7290 H   0  0  0  0  0  0  0  0  0  0  0  0
   -0.7340   10.6540   -0.0420 C   0  0  0  0  0  0  0  0  0  0  0  0
   -0.4200   12.0990    0.0510 C   0  0  0  0  0  0  0  0  0  0  0  0
   -1.7890   10.4020   -0.1780 H   0  0  0  0  0  0  0  0  0  0  0  0
    1.2440    9.9220    0.1270 H   0  0  0  0  0  0  0  0  0  0  0  0
   -3.7170    4.2280   -0.2150 N   0  0  0  0  0  0  0  0  0  0  0  0
   -1.4870   12.8640   -0.0490 O   0  0  0  0  0  0  0  0  0  0  0  0
    0.6960   12.5580    0.1860 O   0  0  0  0  0  0  0  0  0  0  0  0
   -1.2340   13.8070    0.0000 H   0  0  0  0  0  0  0  0  0  0  0  0
  1  5  1  0  0  0  0
  2  1  1  0  0  0  0
  3  2  2  0  0  0  0
  4  2  1  1  0  0  0
  4 10  5  0  0  0  0
  6  4  5  0  0  0  0
  6  7  5  0  0  0  0
  6 13  1  0  0  0  0
  7 12  1  1  0  0  0
  8  7  5  0  0  0  0
  8  9  5  1  0  0  0
  8 11  1  0  0  0  0
  9 15  1  0  0  0  0
 10  9  5  0  0  0  0
 10 14  1  1  0  0  0
 11 20  1  0  0  0  0
 11 24  1  6  0  0  0
 12 29  3  0  0  0  0
 14 16  1  0  0  0  0
 17 11  1  0  0  0  0
 17 22  1  0  0  0  0
 17 23  1  0  0  0  0
 18 17  1  0  0  0  0
 19 18  1  0  0  0  0
 20 19  2  0  0  0  0
 21 18  1  0  0  0  0
 21 28  1  0  0  0  0
 25 21  2  0  0  0  0
 25 27  1  0  0  0  0
 26 25  1  0  0  0  0
 26 31  2  0  0  0  0
 30 26  1  0  0  0  0
 32 30  1  0  0  0  0
M  END
