
 OpenBabel02032115563D

 26 26  0  0  1  0  0  0  0  0999 V2000
    1.5780    0.0910   -0.0050 O   0  0  0  0  0  0  0  0  0  0  0  0
    0.5500    0.9400   -0.0070 C   0  0  0  0  0  0  0  0  0  0  0  0
   -0.4830    0.3080   -0.0100 O   0  0  0  0  0  0  0  0  0  0  0  0
    0.3900    2.3880   -0.0080 C   0  0  2  0  0  0  0  0  0  0  0  0
    2.5030    0.4170    0.0000 H   0  0  0  0  0  0  0  0  0  0  0  0
   -0.7930    3.0700   -0.0070 C   0  0  2  0  0  0  0  0  0  0  0  0
   -0.8110    4.4170   -0.0080 C   0  0  0  0  0  0  0  0  0  0  0  0
    0.3080    5.1520   -0.0100 C   0  0  2  0  0  0  0  0  0  0  0  0
    1.4640    4.4730   -0.0110 C   0  0  0  0  0  0  0  0  0  0  0  0
    1.5030    3.1330   -0.0110 C   0  0  0  0  0  0  0  0  0  0  0  0
    0.3060    6.5050   -0.0090 C   0  0  0  0  0  0  0  0  0  0  0  0
   -1.7770    4.9230   -0.0070 H   0  0  0  0  0  0  0  0  0  0  0  0
   -2.3780    2.3620   -0.0040 Cl  0  0  0  0  0  0  0  0  0  0  0  0
    2.4740    2.6440   -0.0120 H   0  0  0  0  0  0  0  0  0  0  0  0
    2.4070    5.0140   -0.0130 H   0  0  0  0  0  0  0  0  0  0  0  0
   -0.6620    7.4590   -0.0070 C   0  0  0  0  0  0  0  0  0  0  0  0
   -0.3650    8.8760   -0.0030 N   0  0  0  0  0  0  0  0  0  0  0  0
   -1.7420    7.6740   -0.0070 H   0  0  0  0  0  0  0  0  0  0  0  0
    1.3030    6.9400   -0.0090 H   0  0  0  0  0  0  0  0  0  0  0  0
   -0.4280   10.1560    0.0010 N   0  0  0  0  0  0  0  0  0  0  0  0
   -0.5370   11.2770    0.0050 C   0  0  0  0  0  0  0  0  0  0  0  0
   -0.7640   12.6620    0.0030 C   0  0  0  0  0  0  0  0  0  0  0  0
   -0.7420   14.1460    0.0010 C   0  0  0  0  0  0  0  0  0  0  0  0
   -1.8430   14.8830    0.0010 O   0  0  0  0  0  0  0  0  0  0  0  0
    0.3330   14.7110   -0.0010 O   0  0  0  0  0  0  0  0  0  0  0  0
   -1.6580   15.8700    0.0000 H   0  0  0  0  0  0  0  0  0  0  0  0
  1  5  1  0  0  0  0
  2  1  1  0  0  0  0
  3  2  2  0  0  0  0
  4  2  1  6  0  0  0
  4 10  5  0  0  0  0
  6  4  5  0  0  0  0
  6  7  5  0  0  0  0
  6 13  1  1  0  0  0
  7 12  1  0  0  0  0
  8  7  5  0  0  0  0
  8 11  1  1  0  0  0
  9  8  5  0  0  0  0
  9 15  1  0  0  0  0
 10  9  5  0  0  0  0
 10 14  1  0  0  0  0
 11 19  1  0  0  0  0
 16 11  2  0  0  0  0
 16 18  1  0  0  0  0
 17 16  1  0  0  0  0
 20 17  2  0  0  0  0
 21 20  1  0  0  0  0
 22 21  3  0  0  0  0
 23 22  1  0  0  0  0
 23 25  2  0  0  0  0
 24 23  1  0  0  0  0
 26 24  1  0  0  0  0
M  END
