
 OpenBabel02032115563D

 38 39  0  0  1  0  0  0  0  0999 V2000
    1.7570   -0.1860   -0.0930 O   0  0  0  0  0  0  0  0  0  0  0  0
    0.6050    0.4440   -0.1680 C   0  0  0  0  0  0  0  0  0  0  0  0
   -0.3060   -0.3200   -0.4020 O   0  0  0  0  0  0  0  0  0  0  0  0
    0.3560    1.8740   -0.0780 C   0  0  2  0  0  0  0  0  0  0  0  0
    2.5030    0.4170    0.0000 H   0  0  0  0  0  0  0  0  0  0  0  0
   -0.8700    2.4840   -0.1080 C   0  0  2  0  0  0  0  0  0  0  0  0
   -0.9200    3.8440   -0.0600 C   0  0  1  0  0  0  0  0  0  0  0  0
    0.1950    4.5890    0.0670 C   0  0  2  0  0  0  0  0  0  0  0  0
    1.3720    3.9710    0.1190 C   0  0  0  0  0  0  0  0  0  0  0  0
    1.4480    2.6450    0.0370 C   0  0  0  0  0  0  0  0  0  0  0  0
    0.0730    6.1220    0.1960 C   0  0  1  0  0  0  0  0  0  0  0  0
   -2.0780    4.5220   -0.1450 N   0  0  0  0  0  0  0  0  0  0  0  0
   -2.1670    1.6200   -0.1580 C   0  0  0  0  0  0  0  0  0  0  0  0
    2.4390    2.2000    0.0710 H   0  0  0  0  0  0  0  0  0  0  0  0
    2.2900    4.5430    0.2260 H   0  0  0  0  0  0  0  0  0  0  0  0
    1.2980    7.0490   -0.0160 C   0  0  0  0  0  0  0  0  0  0  0  0
    0.8290    8.4720   -0.0300 N   0  0  0  0  0  0  0  0  0  0  0  0
    0.0010    8.0380   -0.6210 N   0  0  0  0  0  0  0  0  0  0  0  0
   -0.4430    7.0950    0.2280 N   0  0  0  0  0  0  0  0  0  0  0  0
    0.5690    9.8060   -0.0460 C   0  0  0  0  0  0  0  0  0  0  0  0
    1.8480    6.7810   -0.9350 H   0  0  0  0  0  0  0  0  0  0  0  0
    1.9950    6.9210    0.8200 H   0  0  0  0  0  0  0  0  0  0  0  0
   -0.4240    6.3690    1.1400 H   0  0  0  0  0  0  0  0  0  0  0  0
   -0.4530   10.6940   -0.0180 C   0  0  0  0  0  0  0  0  0  0  0  0
   -0.2870   12.1730   -0.0280 C   0  0  0  0  0  0  0  0  0  0  0  0
   -1.4790   10.3290    0.0210 H   0  0  0  0  0  0  0  0  0  0  0  0
    1.6180   10.1360   -0.0710 H   0  0  0  0  0  0  0  0  0  0  0  0
   -3.5890    2.1880    0.0690 C   0  0  0  0  0  0  0  0  0  0  0  0
   -3.6500    2.7540    1.0020 H   0  0  0  0  0  0  0  0  0  0  0  0
   -3.9070    2.8140   -0.7680 H   0  0  0  0  0  0  0  0  0  0  0  0
   -4.3040    1.3660    0.1380 H   0  0  0  0  0  0  0  0  0  0  0  0
   -2.1990    1.0940   -1.1150 H   0  0  0  0  0  0  0  0  0  0  0  0
   -2.0840    0.8680    0.6300 H   0  0  0  0  0  0  0  0  0  0  0  0
   -2.5070    4.8950    0.7000 H   0  0  0  0  0  0  0  0  0  0  0  0
   -2.8290    4.1650   -0.7310 H   0  0  0  0  0  0  0  0  0  0  0  0
   -1.4170   12.8430    0.0070 O   0  0  0  0  0  0  0  0  0  0  0  0
    0.7910   12.7300   -0.0550 O   0  0  0  0  0  0  0  0  0  0  0  0
   -1.2340   13.8070    0.0000 H   0  0  0  0  0  0  0  0  0  0  0  0
  1  5  1  0  0  0  0
  2  1  1  0  0  0  0
  3  2  2  0  0  0  0
  4  2  1  6  0  0  0
  4 10  5  0  0  0  0
  6  4  5  0  0  0  0
  6  7  5  0  0  0  0
  6 13  1  1  0  0  0
  7 12  1  6  0  0  0
  8  7  5  0  0  0  0
  8  9  5  1  0  0  0
  8 11  1  0  0  0  0
  9 15  1  0  0  0  0
 10  9  5  0  0  0  0
 10 14  1  0  0  0  0
 11 19  1  0  0  0  0
 11 23  1  1  0  0  0
 12 34  1  0  0  0  0
 12 35  1  0  0  0  0
 13 32  1  0  0  0  0
 13 33  1  0  0  0  0
 16 11  1  0  0  0  0
 16 21  1  0  0  0  0
 16 22  1  0  0  0  0
 17 16  1  0  0  0  0
 18 17  1  0  0  0  0
 19 18  2  0  0  0  0
 20 17  1  0  0  0  0
 20 27  1  0  0  0  0
 24 20  2  0  0  0  0
 24 26  1  0  0  0  0
 25 24  1  0  0  0  0
 25 37  2  0  0  0  0
 28 29  1  0  0  0  0
 28 30  1  0  0  0  0
 28 31  1  0  0  0  0
 28 13  1  0  0  0  0
 36 25  1  0  0  0  0
 38 36  1  0  0  0  0
M  END
