
 OpenBabel02032115563D

 36 38  0  0  1  0  0  0  0  0999 V2000
    1.9690   -0.3900   -0.0500 O   0  0  0  0  0  0  0  0  0  0  0  0
    0.7200   -0.0100   -0.0770 C   0  0  0  0  0  0  0  0  0  0  0  0
   -0.1480   -0.8590   -0.1290 O   0  0  0  0  0  0  0  0  0  0  0  0
    0.3530    1.3690   -0.0260 C   0  0  2  0  0  0  0  0  0  0  0  0
    2.5030    0.4170    0.0000 H   0  0  0  0  0  0  0  0  0  0  0  0
   -0.9340    1.7370   -0.0530 C   0  0  0  0  0  0  0  0  0  0  0  0
   -1.2770    3.0230    0.0050 C   0  0  2  0  0  0  0  0  0  0  0  0
   -0.3510    3.9910    0.0900 C   0  0  2  0  0  0  0  0  0  0  0  0
    0.9360    3.6180    0.1120 C   0  0  0  0  0  0  0  0  0  0  0  0
    1.2840    2.3310    0.0500 C   0  0  0  0  0  0  0  0  0  0  0  0
   -0.7730    5.4560    0.1780 C   0  0  1  0  0  0  0  0  0  0  0  0
   -3.1250    3.4180   -0.0280 Br  0  0  0  0  0  0  0  0  0  0  0  0
   -1.7220    0.9900   -0.1150 H   0  0  0  0  0  0  0  0  0  0  0  0
    2.3430    2.0840    0.0730 H   0  0  0  0  0  0  0  0  0  0  0  0
    1.7260    4.3620    0.1840 H   0  0  0  0  0  0  0  0  0  0  0  0
    0.2800    6.5280   -0.1930 C   0  0  0  0  0  0  0  0  0  0  0  0
   -0.4170    7.7900   -0.5420 N   0  0  0  0  0  0  0  0  0  0  0  0
   -1.2630    7.1890   -0.9210 N   0  0  0  0  0  0  0  0  0  0  0  0
   -1.4670    6.3040    0.0680 N   0  0  0  0  0  0  0  0  0  0  0  0
   -0.1270    8.9060    0.3920 C   0  0  1  0  0  0  0  0  0  0  0  0
    0.9670    6.6840    0.6470 H   0  0  0  0  0  0  0  0  0  0  0  0
    0.8780    6.1890   -1.0500 H   0  0  0  0  0  0  0  0  0  0  0  0
   -1.2210    5.6720    1.1520 H   0  0  0  0  0  0  0  0  0  0  0  0
    1.1850    9.6650    0.0820 C   0  0  0  0  0  0  0  0  0  0  0  0
    0.9020   11.0990   -0.1350 N   0  0  0  0  0  0  0  0  0  0  0  0
    0.0350   10.8700   -0.7810 N   0  0  0  0  0  0  0  0  0  0  0  0
   -0.4530    9.8950    0.0120 N   0  0  0  0  0  0  0  0  0  0  0  0
    1.6730   12.2670   -0.1550 C   0  0  0  0  0  0  0  0  0  0  0  0
    1.8580    9.5660    0.9410 H   0  0  0  0  0  0  0  0  0  0  0  0
    1.7060    9.2290   -0.7850 H   0  0  0  0  0  0  0  0  0  0  0  0
   -1.0210    9.5130    0.6130 H   0  0  0  0  0  0  0  0  0  0  0  0
    1.2340   13.4020   -0.0340 C   0  0  0  0  0  0  0  0  0  0  0  0
    0.6420   14.7210    0.0870 C   0  0  0  0  0  0  0  0  0  0  0  0
   -0.6590   14.7000    0.0080 O   0  0  0  0  0  0  0  0  0  0  0  0
    1.2890   15.7460    0.1090 O   0  0  0  0  0  0  0  0  0  0  0  0
   -0.9540   15.6240    0.0000 H   0  0  0  0  0  0  0  0  0  0  0  0
  1  5  1  0  0  0  0
  2  1  1  0  0  0  0
  3  2  2  0  0  0  0
  4  2  1  6  0  0  0
  4 10  5  0  0  0  0
  6  4  5  0  0  0  0
  6  7  5  0  0  0  0
  6 13  1  0  0  0  0
  7 12  1  1  0  0  0
  8  7  5  0  0  0  0
  8  9  5  1  0  0  0
  8 11  1  0  0  0  0
  9 15  1  0  0  0  0
 10  9  5  0  0  0  0
 10 14  1  0  0  0  0
 11 19  1  0  0  0  0
 11 23  1  1  0  0  0
 16 11  1  0  0  0  0
 16 21  1  0  0  0  0
 16 22  1  0  0  0  0
 17 16  1  0  0  0  0
 18 17  1  0  0  0  0
 19 18  2  0  0  0  0
 20 17  1  0  0  0  0
 20 27  1  0  0  0  0
 20 31  1  1  0  0  0
 24 20  1  0  0  0  0
 24 29  1  0  0  0  0
 24 30  1  0  0  0  0
 25 24  1  0  0  0  0
 26 25  1  0  0  0  0
 27 26  2  0  0  0  0
 28 25  1  0  0  0  0
 32 28  3  0  0  0  0
 33 32  1  0  0  0  0
 33 35  2  0  0  0  0
 34 33  1  0  0  0  0
 36 34  1  0  0  0  0
M  END
