
 OpenBabel02052118083D

 33 34  0  0  1  0  0  0  0  0999 V2000
    1.6650    0.9520   -0.3690 O   0  0  0  0  0  0  0  0  0  0  0  0
    1.0480    2.2050   -0.3000 C   0  0  0  0  0  0  0  0  0  0  0  0
    0.2140    1.9640   -1.1500 O   0  0  0  0  0  0  0  0  0  0  0  0
    0.7500    3.6880   -0.0800 C   0  0  2  0  0  0  0  0  0  0  0  0
    2.5030    0.4170    0.0000 H   0  0  0  0  0  0  0  0  0  0  0  0
   -0.5180    4.1780    0.1400 C   0  0  2  0  0  0  0  0  0  0  0  0
   -0.8500    5.5250    0.1100 C   0  0  1  0  0  0  0  0  0  0  0  0
    0.0720    6.5240   -0.0940 C   0  0  1  0  0  0  0  0  0  0  0  0
    1.3260    6.0180   -0.2060 C   0  0  0  0  0  0  0  0  0  0  0  0
    1.6590    4.6840   -0.1910 C   0  0  2  0  0  0  0  0  0  0  0  0
   -0.2700    8.1400   -0.3680 C   0  0  2  0  0  0  0  0  0  0  0  0
   -2.3290    5.9200    0.2660 C   0  0  0  0  0  0  0  0  0  0  0  0
   -1.7720    3.0220    0.5090 Cl  0  0  0  0  0  0  0  0  0  0  0  0
    2.9170    4.3580   -0.3490 C   0  0  0  0  0  0  0  0  0  0  0  0
    2.1250    6.7360   -0.3660 H   0  0  0  0  0  0  0  0  0  0  0  0
   -2.4530    6.6340    1.0810 H   0  0  0  0  0  0  0  0  0  0  0  0
   -2.7020    6.3590   -0.6630 H   0  0  0  0  0  0  0  0  0  0  0  0
   -3.0360    5.1300    0.5050 H   0  0  0  0  0  0  0  0  0  0  0  0
    0.5230    9.4740    0.0710 C   0  0  0  0  0  0  0  0  0  0  0  0
   -0.4090   10.7520   -0.3140 C   0  0  1  0  0  0  0  0  0  0  0  0
   -1.7030   10.1490    0.0730 N   0  0  0  0  0  0  0  0  0  0  0  0
   -1.6410    8.6680   -0.0820 N   0  0  0  0  0  0  0  0  0  0  0  0
   -0.1830   12.2890    0.2030 C   0  0  0  0  0  0  0  0  0  0  0  0
   -2.3080    8.4250   -0.8120 H   0  0  0  0  0  0  0  0  0  0  0  0
   -1.8710   10.2850    1.0690 H   0  0  0  0  0  0  0  0  0  0  0  0
    1.4930    9.5310   -0.4290 H   0  0  0  0  0  0  0  0  0  0  0  0
   -0.4020   10.8280   -1.4040 H   0  0  0  0  0  0  0  0  0  0  0  0
    0.7000    9.4550    1.1500 H   0  0  0  0  0  0  0  0  0  0  0  0
   -0.2030    8.1880   -1.4580 H   0  0  0  0  0  0  0  0  0  0  0  0
    4.0100    4.0660   -0.4720 N   0  0  0  0  0  0  0  0  0  0  0  0
   -0.9520   13.3440   -0.2690 O   0  0  0  0  0  0  0  0  0  0  0  0
    0.7210   12.5230    0.9780 O   0  0  0  0  0  0  0  0  0  0  0  0
   -0.8530   14.3960    0.0000 H   0  0  0  0  0  0  0  0  0  0  0  0
  1  5  1  0  0  0  0
  2  1  1  0  0  0  0
  3  2  2  0  0  0  0
  4  2  1  6  0  0  0
  4 10  5  0  0  0  0
  6  4  5  0  0  0  0
  6  7  5  0  0  0  0
  6 13  1  1  0  0  0
  7 12  1  6  0  0  0
  8  7  5  0  0  0  0
  8  9  5  6  0  0  0
  8 11  1  0  0  0  0
  9 15  1  0  0  0  0
 10  9  5  0  0  0  0
 10 14  1  6  0  0  0
 11 22  1  0  0  0  0
 11 29  1  6  0  0  0
 12 16  1  0  0  0  0
 12 17  1  0  0  0  0
 12 18  1  0  0  0  0
 14 30  3  0  0  0  0
 19 11  1  0  0  0  0
 19 26  1  0  0  0  0
 19 28  1  0  0  0  0
 20 19  1  0  0  0  0
 20 27  1  6  0  0  0
 21 20  1  0  0  0  0
 22 21  1  0  0  0  0
 23 20  1  0  0  0  0
 23 32  2  0  0  0  0
 24 22  1  0  0  0  0
 25 21  1  0  0  0  0
 31 23  1  0  0  0  0
 33 31  1  0  0  0  0
M  END
