
 OpenBabel02032115563D

 34 35  0  0  1  0  0  0  0  0999 V2000
    1.6170   -0.0210   -0.0170 O   0  0  0  0  0  0  0  0  0  0  0  0
    0.5270    0.7430   -0.0200 C   0  0  0  0  0  0  0  0  0  0  0  0
   -0.5170    0.1190   -0.0370 O   0  0  0  0  0  0  0  0  0  0  0  0
    0.3720    2.1730   -0.0040 C   0  0  1  0  0  0  0  0  0  0  0  0
    2.5030    0.4170    0.0000 H   0  0  0  0  0  0  0  0  0  0  0  0
   -0.8180    2.7990   -0.0080 C   0  0  0  0  0  0  0  0  0  0  0  0
   -0.9200    4.1370    0.0100 C   0  0  0  0  0  0  0  0  0  0  0  0
    0.2170    4.9310    0.0200 C   0  0  1  0  0  0  0  0  0  0  0  0
    1.4360    4.2630    0.0530 C   0  0  2  0  0  0  0  0  0  0  0  0
    1.4630    2.9290    0.0280 C   0  0  0  0  0  0  0  0  0  0  0  0
    0.4060    6.3050   -0.1030 C   0  0  0  0  0  0  0  0  0  0  0  0
   -1.9130    4.5860    0.0130 H   0  0  0  0  0  0  0  0  0  0  0  0
   -1.7450    2.2240   -0.0220 H   0  0  0  0  0  0  0  0  0  0  0  0
    2.4320    2.4440    0.0450 H   0  0  0  0  0  0  0  0  0  0  0  0
    2.6350    4.8670    0.1170 F   0  0  0  0  0  0  0  0  0  0  0  0
   -0.6070    7.1700   -0.1420 C   0  0  0  0  0  0  0  0  0  0  0  0
   -0.5180    8.6960   -0.3060 C   0  0  1  0  0  0  0  0  0  0  0  0
   -1.6300    6.8110   -0.0610 H   0  0  0  0  0  0  0  0  0  0  0  0
    1.4000    6.7320   -0.1820 H   0  0  0  0  0  0  0  0  0  0  0  0
    0.8540    9.4590   -0.0210 C   0  0  0  0  0  0  0  0  0  0  0  0
    0.8120   10.9880    0.0090 N   0  0  0  0  0  0  0  0  0  0  0  0
   -0.2210   10.7470    0.2490 N   0  0  0  0  0  0  0  0  0  0  0  0
   -0.9580    9.6430    0.0440 N   0  0  0  0  0  0  0  0  0  0  0  0
    0.7780   12.3670    0.0370 C   0  0  0  0  0  0  0  0  0  0  0  0
    1.5490    9.1790   -0.8210 H   0  0  0  0  0  0  0  0  0  0  0  0
    1.3110    9.0640    0.9000 H   0  0  0  0  0  0  0  0  0  0  0  0
   -1.4370    9.0530    0.1820 H   0  0  0  0  0  0  0  0  0  0  0  0
   -0.1330   13.3920    0.0380 C   0  0  0  0  0  0  0  0  0  0  0  0
    0.1040   14.8790    0.0290 C   0  0  0  0  0  0  0  0  0  0  0  0
   -1.1860   13.1240    0.0430 H   0  0  0  0  0  0  0  0  0  0  0  0
    1.8570   12.1390    0.0510 H   0  0  0  0  0  0  0  0  0  0  0  0
   -1.0130   15.6050    0.0210 O   0  0  0  0  0  0  0  0  0  0  0  0
    1.2090   15.3810    0.0070 O   0  0  0  0  0  0  0  0  0  0  0  0
   -0.9080   16.6030    0.0000 H   0  0  0  0  0  0  0  0  0  0  0  0
  1  5  1  0  0  0  0
  2  1  1  0  0  0  0
  3  2  2  0  0  0  0
  4  2  1  1  0  0  0
  4 10  5  0  0  0  0
  6  4  5  0  0  0  0
  6  7  5  0  0  0  0
  6 13  1  0  0  0  0
  7 12  1  0  0  0  0
  8  7  5  0  0  0  0
  8 11  1  6  0  0  0
  9  8  5  0  0  0  0
  9 15  1  1  0  0  0
 10  9  5  0  0  0  0
 10 14  1  0  0  0  0
 11 19  1  0  0  0  0
 16 11  2  0  0  0  0
 16 18  1  0  0  0  0
 17 16  1  0  0  0  0
 17 23  1  0  0  0  0
 17 27  1  1  0  0  0
 20 17  1  0  0  0  0
 20 25  1  0  0  0  0
 20 26  1  0  0  0  0
 21 20  1  0  0  0  0
 22 21  1  0  0  0  0
 23 22  2  0  0  0  0
 24 21  1  0  0  0  0
 24 31  1  0  0  0  0
 28 24  2  0  0  0  0
 28 30  1  0  0  0  0
 29 28  1  0  0  0  0
 29 33  2  0  0  0  0
 32 29  1  0  0  0  0
 34 32  1  0  0  0  0
M  END
