
 OpenBabel02032115563D

 40 41  0  0  1  0  0  0  0  0999 V2000
    1.6200    0.0440    0.1780 O   0  0  0  0  0  0  0  0  0  0  0  0
    0.6730    0.9500    0.2430 C   0  0  0  0  0  0  0  0  0  0  0  0
   -0.3170    0.3770    0.6430 O   0  0  0  0  0  0  0  0  0  0  0  0
    0.5430    2.3980    0.0750 C   0  0  1  0  0  0  0  0  0  0  0  0
    2.5030    0.4170    0.0000 H   0  0  0  0  0  0  0  0  0  0  0  0
   -0.6990    2.9730   -0.0540 C   0  0  1  0  0  0  0  0  0  0  0  0
   -0.8310    4.3060   -0.1180 C   0  0  0  0  0  0  0  0  0  0  0  0
    0.2150    5.1240   -0.0650 C   0  0  2  0  0  0  0  0  0  0  0  0
    1.4180    4.5710    0.0150 C   0  0  0  0  0  0  0  0  0  0  0  0
    1.6220    3.2420    0.0800 C   0  0  1  0  0  0  0  0  0  0  0  0
    0.0690    6.4350   -0.0260 C   0  0  0  0  0  0  0  0  0  0  0  0
   -1.8240    4.7480   -0.1910 H   0  0  0  0  0  0  0  0  0  0  0  0
   -2.0430    2.2320   -0.1660 C   0  0  0  0  0  0  0  0  0  0  0  0
    3.1380    2.9640    0.2240 C   0  0  0  0  0  0  0  0  0  0  0  0
    2.2710    5.2490    0.0680 H   0  0  0  0  0  0  0  0  0  0  0  0
   -0.1010    7.6030    0.0990 C   0  0  0  0  0  0  0  0  0  0  0  0
   -0.4790    9.0100    0.4100 C   0  0  1  0  0  0  0  0  0  0  0  0
   -2.8650    2.8880   -0.4690 H   0  0  0  0  0  0  0  0  0  0  0  0
   -2.0000    1.4370   -0.9150 H   0  0  0  0  0  0  0  0  0  0  0  0
   -2.3360    1.8000    0.7920 H   0  0  0  0  0  0  0  0  0  0  0  0
    0.2790   10.0870   -0.2370 O   0  0  0  0  0  0  0  0  0  0  0  0
   -1.9910   10.7930   -0.0700 C   0  0  0  0  0  0  0  0  0  0  0  0
   -1.9300    9.2750    0.0040 C   0  0  0  0  0  0  0  0  0  0  0  0
   -0.2580   12.6240   -0.1730 C   0  0  0  0  0  0  0  0  0  0  0  0
   -2.1360    8.8490   -0.9820 H   0  0  0  0  0  0  0  0  0  0  0  0
   -2.1240   11.2020    0.9350 H   0  0  0  0  0  0  0  0  0  0  0  0
   -2.8040   11.1410   -0.7110 H   0  0  0  0  0  0  0  0  0  0  0  0
   -2.6380    8.8730    0.7300 H   0  0  0  0  0  0  0  0  0  0  0  0
   -0.6540   11.2120   -1.7160 H   0  0  0  0  0  0  0  0  0  0  0  0
   -0.6170   11.1970   -0.6240 C   0  0  1  0  0  0  0  0  0  0  0  0
   -0.3790    9.1540    1.4900 H   0  0  0  0  0  0  0  0  0  0  0  0
    3.8400    1.6750   -0.2360 C   0  0  0  0  0  0  0  0  0  0  0  0
    4.8970    1.8880   -0.4150 H   0  0  0  0  0  0  0  0  0  0  0  0
    3.4200    1.2840   -1.1650 H   0  0  0  0  0  0  0  0  0  0  0  0
    3.8260    0.9250    0.5580 H   0  0  0  0  0  0  0  0  0  0  0  0
    3.4280    3.1640    1.2570 H   0  0  0  0  0  0  0  0  0  0  0  0
    3.6570    3.7220   -0.3700 H   0  0  0  0  0  0  0  0  0  0  0  0
   -1.2270   13.4930   -0.4030 O   0  0  0  0  0  0  0  0  0  0  0  0
    0.7500   12.9150    0.4400 O   0  0  0  0  0  0  0  0  0  0  0  0
   -1.0610   14.3810    0.0000 H   0  0  0  0  0  0  0  0  0  0  0  0
  1  5  1  0  0  0  0
  2  1  1  0  0  0  0
  3  2  2  0  0  0  0
  4  2  1  1  0  0  0
  4 10  5  0  0  0  0
  6  4  5  0  0  0  0
  6  7  5  0  0  0  0
  6 13  1  6  0  0  0
  7 12  1  0  0  0  0
  8  7  5  0  0  0  0
  8 11  1  1  0  0  0
  9  8  5  0  0  0  0
  9 15  1  0  0  0  0
 10  9  5  0  0  0  0
 10 14  1  1  0  0  0
 13 18  1  0  0  0  0
 13 19  1  0  0  0  0
 13 20  1  0  0  0  0
 14 36  1  0  0  0  0
 14 37  1  0  0  0  0
 16 11  3  0  0  0  0
 17 16  1  0  0  0  0
 17 23  1  0  0  0  0
 17 31  1  1  0  0  0
 21 17  1  0  0  0  0
 22 30  1  0  0  0  0
 22 27  1  0  0  0  0
 23 22  1  0  0  0  0
 23 28  1  0  0  0  0
 24 30  1  0  0  0  0
 24 39  2  0  0  0  0
 25 23  1  0  0  0  0
 26 22  1  0  0  0  0
 30 21  1  0  0  0  0
 30 29  1  6  0  0  0
 32 33  1  0  0  0  0
 32 34  1  0  0  0  0
 32 35  1  0  0  0  0
 32 14  1  0  0  0  0
 38 24  1  0  0  0  0
 40 38  1  0  0  0  0
M  END
