
 OpenBabel02032115563D

 31 32  0  0  1  0  0  0  0  0999 V2000
    1.6820   -0.0800   -0.1370 O   0  0  0  0  0  0  0  0  0  0  0  0
    0.6230    0.6970   -0.1310 C   0  0  0  0  0  0  0  0  0  0  0  0
   -0.4450    0.1250   -0.2290 O   0  0  0  0  0  0  0  0  0  0  0  0
    0.5840    2.1280   -0.0280 C   0  0  1  0  0  0  0  0  0  0  0  0
    2.5030    0.4170    0.0000 H   0  0  0  0  0  0  0  0  0  0  0  0
   -0.5750    2.7880    0.0450 C   0  0  0  0  0  0  0  0  0  0  0  0
   -0.6210    4.1190    0.1360 C   0  0  2  0  0  0  0  0  0  0  0  0
    0.5120    4.8610    0.1480 C   0  0  2  0  0  0  0  0  0  0  0  0
    1.6850    4.1870    0.1080 C   0  0  1  0  0  0  0  0  0  0  0  0
    1.7060    2.8490    0.0050 C   0  0  0  0  0  0  0  0  0  0  0  0
    0.5240    6.1700    0.2610 N   0  0  0  0  0  0  0  0  0  0  0  0
   -1.8460    4.6670    0.2620 F   0  0  0  0  0  0  0  0  0  0  0  0
   -1.5200    2.2490    0.0470 H   0  0  0  0  0  0  0  0  0  0  0  0
    2.6660    2.3420   -0.0510 H   0  0  0  0  0  0  0  0  0  0  0  0
    3.0350    4.8990    0.1010 C   0  0  0  0  0  0  0  0  0  0  0  0
   -0.2700    6.7130   -0.5840 N   0  0  0  0  0  0  0  0  0  0  0  0
   -0.8430    8.0310   -0.1740 C   0  0  1  0  0  0  0  0  0  0  0  0
    0.1930    9.1790   -0.1090 C   0  0  0  0  0  0  0  0  0  0  0  0
   -0.4320   10.5210   -0.0610 N   0  0  0  0  0  0  0  0  0  0  0  0
   -1.4310   10.1120   -0.2900 N   0  0  0  0  0  0  0  0  0  0  0  0
   -1.6100    8.7860   -0.4090 N   0  0  0  0  0  0  0  0  0  0  0  0
    0.2900   11.6480    0.1700 C   0  0  0  0  0  0  0  0  0  0  0  0
    0.8750    9.1360   -0.9660 H   0  0  0  0  0  0  0  0  0  0  0  0
    0.7980    9.0440    0.7930 H   0  0  0  0  0  0  0  0  0  0  0  0
   -1.4250    7.9230    0.7540 H   0  0  0  0  0  0  0  0  0  0  0  0
    2.9750    5.9220   -0.2790 H   0  0  0  0  0  0  0  0  0  0  0  0
    3.7480    4.3730   -0.5370 H   0  0  0  0  0  0  0  0  0  0  0  0
    3.4510    4.9370    1.1100 H   0  0  0  0  0  0  0  0  0  0  0  0
   -0.3680   12.7870    0.1730 O   0  0  0  0  0  0  0  0  0  0  0  0
    1.4870   11.6130    0.3760 O   0  0  0  0  0  0  0  0  0  0  0  0
   -1.3190   12.6560    0.0000 H   0  0  0  0  0  0  0  0  0  0  0  0
  1  5  1  0  0  0  0
  2  1  1  0  0  0  0
  3  2  2  0  0  0  0
  4  2  1  1  0  0  0
  4 10  5  0  0  0  0
  6  4  5  0  0  0  0
  6  7  5  0  0  0  0
  6 13  1  0  0  0  0
  7 12  1  1  0  0  0
  8  7  5  0  0  0  0
  8 11  1  1  0  0  0
  9  8  5  0  0  0  0
  9 15  1  6  0  0  0
 10  9  5  0  0  0  0
 10 14  1  0  0  0  0
 15 26  1  0  0  0  0
 15 27  1  0  0  0  0
 15 28  1  0  0  0  0
 16 11  2  0  0  0  0
 17 16  1  0  0  0  0
 17 21  1  0  0  0  0
 17 25  1  1  0  0  0
 18 17  1  0  0  0  0
 18 23  1  0  0  0  0
 18 24  1  0  0  0  0
 19 18  1  0  0  0  0
 20 19  1  0  0  0  0
 21 20  2  0  0  0  0
 22 19  1  0  0  0  0
 22 30  2  0  0  0  0
 29 22  1  0  0  0  0
 31 29  1  0  0  0  0
M  END
