
 OpenBabel03312114143D

 54 57  0  0  1  0  0  0  0  0999 V2000
    2.0610    1.2450    0.4170 O   0  0  0  0  0  0  0  0  0  0  0  0
    1.2130    1.9870   -0.3290 C   0  0  0  0  0  0  0  0  0  0  0  0
    0.8150    1.4610   -1.3510 O   0  0  0  0  0  0  0  0  0  0  0  0
    0.8700    3.4240   -0.2130 C   0  0  2  0  0  0  0  0  0  0  0  0
    2.5030    0.4170    0.0000 H   0  0  0  0  0  0  0  0  0  0  0  0
   -0.4130    3.8850   -0.2400 C   0  0  2  0  0  0  0  0  0  0  0  0
   -0.6440    5.2400   -0.2010 C   0  0  2  0  0  0  0  0  0  0  0  0
    0.3360    6.1980   -0.0930 C   0  0  1  0  0  0  0  0  0  0  0  0
    1.6130    5.6920   -0.0690 C   0  0  1  0  0  0  0  0  0  0  0  0
    1.8590    4.3460   -0.1490 C   0  0  2  0  0  0  0  0  0  0  0  0
    0.0570    7.5680   -0.0190 C   0  0  2  0  0  0  0  0  0  0  0  0
   -2.4670    5.8050   -0.1230 Br  0  0  0  0  0  0  0  0  0  0  0  0
   -1.5600    2.8180   -0.3120 C   0  0  0  0  0  0  0  0  0  0  0  0
    3.1350    3.9190   -0.2340 C   0  0  0  0  0  0  0  0  0  0  0  0
    2.7110    6.4860   -0.0890 C   0  0  0  0  0  0  0  0  0  0  0  0
    3.9580    6.0150   -0.1140 C   0  0  0  0  0  0  0  0  0  0  0  0
    4.1940    4.7140   -0.1900 C   0  0  2  0  0  0  0  0  0  0  0  0
    2.6610    7.5620   -0.1350 H   0  0  0  0  0  0  0  0  0  0  0  0
    4.7920    6.7130   -0.1120 H   0  0  0  0  0  0  0  0  0  0  0  0
    5.6160    4.1530   -0.2400 C   0  0  0  0  0  0  0  0  0  0  0  0
    3.3760    2.8930   -0.3990 H   0  0  0  0  0  0  0  0  0  0  0  0
    5.7590    2.6570    0.1500 C   0  0  0  0  0  0  0  0  0  0  0  0
    5.3370    2.0050   -0.6200 H   0  0  0  0  0  0  0  0  0  0  0  0
    6.8110    2.3860    0.2620 H   0  0  0  0  0  0  0  0  0  0  0  0
    5.2510    2.4450    1.0950 H   0  0  0  0  0  0  0  0  0  0  0  0
    6.2450    4.7310    0.4360 H   0  0  0  0  0  0  0  0  0  0  0  0
    6.0170    4.2850   -1.2460 H   0  0  0  0  0  0  0  0  0  0  0  0
   -0.8730    8.2270   -0.7550 C   0  0  0  0  0  0  0  0  0  0  0  0
   -1.1450    9.5170   -0.7070 N   0  0  0  0  0  0  0  0  0  0  0  0
   -0.4870   10.3640    0.0750 C   0  0  1  0  0  0  0  0  0  0  0  0
    0.4610    9.7520    0.8420 C   0  0  0  0  0  0  0  0  0  0  0  0
    0.7040    8.4240    0.8030 C   0  0  0  0  0  0  0  0  0  0  0  0
   -0.7140   11.5490    0.0380 C   0  0  0  0  0  0  0  0  0  0  0  0
   -1.4000    7.6880   -1.5360 H   0  0  0  0  0  0  0  0  0  0  0  0
    1.4480    8.0460    1.4990 H   0  0  0  0  0  0  0  0  0  0  0  0
    1.0690   10.3370    1.5280 H   0  0  0  0  0  0  0  0  0  0  0  0
   -0.6760   12.1020    1.0630 N   0  0  0  0  0  0  0  0  0  0  0  0
    0.2930   12.9130    1.4710 C   0  0  0  0  0  0  0  0  0  0  0  0
    1.1800   13.2980    0.5550 C   0  0  2  0  0  0  0  0  0  0  0  0
    1.9980   14.0120    0.7330 *   0  0  0  0  0  0  0  0  0  0  0  0
    0.9870   12.8170   -0.6760 C   0  0  0  0  0  0  0  0  0  0  0  0
   -0.0520   11.9630   -0.8360 C   0  0  0  0  0  3  0  0  0  0  0  0
   -0.2140   11.6280   -1.8710 H   0  0  0  0  0  0  0  0  0  0  0  0
    1.6070   13.1260   -1.5150 H   0  0  0  0  0  0  0  0  0  0  0  0
    0.3120   13.3090    2.4830 H   0  0  0  0  0  0  0  0  0  0  0  0
   -2.8370    2.8880    0.5680 C   0  0  0  0  0  0  0  0  0  0  0  0
   -3.6510    3.3990    0.0480 H   0  0  0  0  0  0  0  0  0  0  0  0
   -2.6490    3.3690    1.5300 H   0  0  0  0  0  0  0  0  0  0  0  0
   -3.2120    1.8800    0.7630 H   0  0  0  0  0  0  0  0  0  0  0  0
   -1.8620    2.6870   -1.3540 H   0  0  0  0  0  0  0  0  0  0  0  0
   -1.1780    1.8490    0.0010 H   0  0  0  0  0  0  0  0  0  0  0  0
   -1.5890   12.2940   -0.0810 O   0  0  0  0  0  0  0  0  0  0  0  0
   -1.7380   11.9870    0.0220 O   0  0  0  0  0  0  0  0  0  0  0  0
   -1.8420   13.2890    0.0000 H   0  0  0  0  0  0  0  0  0  0  0  0
  1  5  1  0  0  0  0
  2  1  1  0  0  0  0
  3  2  2  0  0  0  0
  4  2  1  6  0  0  0
  4 10  5  0  0  0  0
  6  4  5  0  0  0  0
  6  7  5  0  0  0  0
  6 13  1  1  0  0  0
  7 12  1  1  0  0  0
  8  7  5  0  0  0  0
  8 11  1  6  0  0  0
  9  8  5  0  0  0  0
  9 15  5  6  0  0  0
 10  9  5  0  0  0  0
 10 14  5  6  0  0  0
 11 28  5  6  0  0  0
 11 32  5  0  0  0  0
 13 50  1  0  0  0  0
 13 51  1  0  0  0  0
 14 17  5  0  0  0  0
 14 21  1  0  0  0  0
 15 18  1  0  0  0  0
 16 15  5  0  0  0  0
 16 19  1  0  0  0  0
 17 16  5  0  0  0  0
 17 20  1  6  0  0  0
 20 26  1  0  0  0  0
 20 27  1  0  0  0  0
 22 23  1  0  0  0  0
 22 24  1  0  0  0  0
 22 25  1  0  0  0  0
 22 20  1  0  0  0  0
 28 29  5  0  0  0  0
 28 34  1  0  0  0  0
 30 29  5  6  0  0  0
 30 33  1  0  0  0  0
 31 30  5  0  0  0  0
 31 36  1  0  0  0  0
 32 31  5  0  0  0  0
 32 35  1  0  0  0  0
 33 42  1  0  0  0  0
 33 53  2  0  0  0  0
 37 33  5  0  0  0  0
 38 37  5  0  0  0  0
 38 45  1  0  0  0  0
 39 38  5  0  0  0  0
 39 40  1  6  0  0  0
 41 39  5  0  0  0  0
 41 44  1  0  0  0  0
 42 41  1  0  0  0  0
 42 43  1  0  0  0  0
 46 47  1  0  0  0  0
 46 48  1  0  0  0  0
 46 49  1  0  0  0  0
 46 13  1  0  0  0  0
 52 33  1  0  0  0  0
 54 52  1  0  0  0  0
M  HYD  1  42   0
M  ZBO  5  41   0  45   0  49   0  50   0  51   0
M  END
