
 OpenBabel02032115563D

 43 45  0  0  1  0  0  0  0  0999 V2000
    2.6200    1.4440   -0.0610 O   0  0  0  0  0  0  0  0  0  0  0  0
    1.5050    2.1610    0.1320 C   0  0  0  0  0  0  0  0  0  0  0  0
    0.5490    1.4330    0.3160 O   0  0  0  0  0  0  0  0  0  0  0  0
    1.1860    3.6030    0.1690 C   0  0  1  0  0  0  0  0  0  0  0  0
    2.5030    0.4170    0.0000 H   0  0  0  0  0  0  0  0  0  0  0  0
   -0.0540    4.0360    0.4730 C   0  0  0  0  0  0  0  0  0  0  0  0
   -0.3770    5.3550    0.5300 C   0  0  2  0  0  0  0  0  0  0  0  0
    0.5090    6.3500    0.2700 C   0  0  2  0  0  0  0  0  0  0  0  0
    1.7480    5.9080   -0.0340 C   0  0  0  0  0  0  0  0  0  0  0  0
    2.0760    4.5880   -0.0790 C   0  0  0  0  0  0  0  0  0  0  0  0
    0.0550    7.8840    0.3690 C   0  0  1  0  0  0  0  0  0  0  0  0
   -1.4450    5.4630    0.8240 C   0  0  0  0  0  0  0  0  0  0  0  0
   -0.8150    3.2760    0.6880 H   0  0  0  0  0  0  0  0  0  0  0  0
    3.0990    4.3160   -0.3270 H   0  0  0  0  0  0  0  0  0  0  0  0
    2.5220    6.6420   -0.2440 H   0  0  0  0  0  0  0  0  0  0  0  0
    0.9870    9.0570    0.2000 O   0  0  0  0  0  0  0  0  0  0  0  0
   -1.1390    9.7940   -0.5510 C   0  0  0  0  0  0  0  0  0  0  0  0
   -1.0960    8.2630   -0.5880 C   0  0  0  0  0  0  0  0  0  0  0  0
    0.4770   11.6830   -0.0890 C   0  0  0  0  0  0  0  0  0  0  0  0
   -2.0610    7.8620   -0.2720 H   0  0  0  0  0  0  0  0  0  0  0  0
   -1.6680   10.2050   -1.4150 H   0  0  0  0  0  0  0  0  0  0  0  0
   -1.6470   10.1250    0.3600 H   0  0  0  0  0  0  0  0  0  0  0  0
   -0.8820    7.9120   -1.6000 H   0  0  0  0  0  0  0  0  0  0  0  0
    0.7040   10.1630   -1.5470 H   0  0  0  0  0  0  0  0  0  0  0  0
    0.3360   10.2160   -0.5190 C   0  0  1  0  0  0  0  0  0  0  0  0
   -0.3420    8.0110    1.3810 H   0  0  0  0  0  0  0  0  0  0  0  0
   -2.5540    5.5180    1.1010 N   0  0  0  0  0  0  0  0  0  0  0  0
    0.4280   12.8660    0.1380 C   0  0  0  0  0  0  0  0  0  0  0  0
    0.1750   14.3390    0.4960 C   0  0  1  0  0  0  0  0  0  0  0  0
    1.0280   15.5540   -0.0280 C   0  0  0  0  0  0  0  0  0  0  0  0
    0.1450   16.8130    0.3410 C   0  0  2  0  0  0  0  0  0  0  0  0
   -1.1920   16.2870   -0.0210 N   0  0  0  0  0  0  0  0  0  0  0  0
   -1.1930   14.8160    0.1730 N   0  0  0  0  0  0  0  0  0  0  0  0
    0.4630   18.2450   -0.2530 C   0  0  0  0  0  0  0  0  0  0  0  0
   -1.8510   14.6210    0.9260 H   0  0  0  0  0  0  0  0  0  0  0  0
   -1.3500   16.3970   -1.0210 H   0  0  0  0  0  0  0  0  0  0  0  0
    2.0100   15.5950    0.4490 H   0  0  0  0  0  0  0  0  0  0  0  0
    0.1750   16.9320    1.4280 H   0  0  0  0  0  0  0  0  0  0  0  0
    1.1640   15.4860   -1.1110 H   0  0  0  0  0  0  0  0  0  0  0  0
    0.2620   14.3780    1.5850 H   0  0  0  0  0  0  0  0  0  0  0  0
   -0.0680   19.3170    0.3730 O   0  0  0  0  0  0  0  0  0  0  0  0
    1.1310   18.3830   -1.2570 O   0  0  0  0  0  0  0  0  0  0  0  0
    0.1030   20.2700    0.0000 H   0  0  0  0  0  0  0  0  0  0  0  0
  1  5  1  0  0  0  0
  2  1  1  0  0  0  0
  3  2  2  0  0  0  0
  4  2  1  1  0  0  0
  4 10  5  0  0  0  0
  6  4  5  0  0  0  0
  6  7  5  0  0  0  0
  6 13  1  0  0  0  0
  7 12  1  1  0  0  0
  8  7  5  0  0  0  0
  8  9  5  1  0  0  0
  8 11  1  0  0  0  0
  9 15  1  0  0  0  0
 10  9  5  0  0  0  0
 10 14  1  0  0  0  0
 11 18  1  0  0  0  0
 11 26  1  1  0  0  0
 12 27  3  0  0  0  0
 16 11  1  0  0  0  0
 17 25  1  0  0  0  0
 17 22  1  0  0  0  0
 18 17  1  0  0  0  0
 18 23  1  0  0  0  0
 19 25  1  0  0  0  0
 20 18  1  0  0  0  0
 21 17  1  0  0  0  0
 25 16  1  0  0  0  0
 25 24  1  6  0  0  0
 28 19  3  0  0  0  0
 29 28  1  0  0  0  0
 29 33  1  0  0  0  0
 29 40  1  1  0  0  0
 30 29  1  0  0  0  0
 30 37  1  0  0  0  0
 30 39  1  0  0  0  0
 31 30  1  0  0  0  0
 31 38  1  1  0  0  0
 32 31  1  0  0  0  0
 33 32  1  0  0  0  0
 34 31  1  0  0  0  0
 34 42  2  0  0  0  0
 35 33  1  0  0  0  0
 36 32  1  0  0  0  0
 41 34  1  0  0  0  0
 43 41  1  0  0  0  0
M  END
