
 OpenBabel02032115563D

 37 38  0  0  1  0  0  0  0  0999 V2000
    1.8290   -0.1810    0.3650 O   0  0  0  0  0  0  0  0  0  0  0  0
    0.6410    0.3840    0.4070 C   0  0  0  0  0  0  0  0  0  0  0  0
   -0.2800   -0.3540    0.6950 O   0  0  0  0  0  0  0  0  0  0  0  0
    0.3760    1.7940    0.3370 C   0  0  1  0  0  0  0  0  0  0  0  0
    2.5030    0.4170    0.0000 H   0  0  0  0  0  0  0  0  0  0  0  0
   -0.7490    2.3370   -0.1780 C   0  0  1  0  0  0  0  0  0  0  0  0
   -0.9250    3.6840   -0.2080 C   0  0  1  0  0  0  0  0  0  0  0  0
    0.0230    4.5240    0.3120 C   0  0  2  0  0  0  0  0  0  0  0  0
    1.1110    3.9340    0.8310 C   0  0  0  0  0  0  0  0  0  0  0  0
    1.2970    2.6160    0.8280 C   0  0  0  0  0  0  0  0  0  0  0  0
   -0.0810    5.8910    0.3420 C   0  0  1  0  0  0  0  0  0  0  0  0
   -2.1310    4.1900   -1.0270 C   0  0  0  0  0  0  0  0  0  0  0  0
   -1.9660    1.3040   -0.8770 Cl  0  0  0  0  0  0  0  0  0  0  0  0
    2.2030    2.2200    1.2790 H   0  0  0  0  0  0  0  0  0  0  0  0
    1.8750    4.5100    1.3340 H   0  0  0  0  0  0  0  0  0  0  0  0
   -1.9880    5.1930   -1.4290 H   0  0  0  0  0  0  0  0  0  0  0  0
   -3.0470    4.1730   -0.4300 H   0  0  0  0  0  0  0  0  0  0  0  0
   -2.3070    3.6010   -1.9270 H   0  0  0  0  0  0  0  0  0  0  0  0
   -1.2940    6.4440    0.5610 C   0  0  0  0  0  0  0  0  0  0  0  0
   -1.5200    7.7560    0.5460 C   0  0  0  0  0  0  0  0  0  0  0  0
   -0.5270    8.6120    0.3240 C   0  0  1  0  0  0  0  0  0  0  0  0
    0.6990    8.0980    0.1760 C   0  0  0  0  0  0  0  0  0  0  0  0
    0.9560    6.7740    0.1880 C   0  0  2  0  0  0  0  0  0  0  0  0
   -0.7750   10.0210    0.2250 C   0  0  0  0  0  0  0  0  0  0  0  0
   -2.5330    8.1140    0.7120 H   0  0  0  0  0  0  0  0  0  0  0  0
   -2.1520    5.8250    0.7990 H   0  0  0  0  0  0  0  0  0  0  0  0
    2.4270    6.4430   -0.1490 C   0  0  0  0  0  0  0  0  0  0  0  0
    1.5200    8.7880    0.0020 H   0  0  0  0  0  0  0  0  0  0  0  0
    2.6480    5.4650   -1.3260 C   0  0  0  0  0  0  0  0  0  0  0  0
    1.7630    5.3990   -1.9620 H   0  0  0  0  0  0  0  0  0  0  0  0
    3.4850    5.8030   -1.9400 H   0  0  0  0  0  0  0  0  0  0  0  0
    2.9040    4.4660   -0.9670 H   0  0  0  0  0  0  0  0  0  0  0  0
    2.9840    6.1280    0.7350 H   0  0  0  0  0  0  0  0  0  0  0  0
    2.9490    7.3530   -0.4530 H   0  0  0  0  0  0  0  0  0  0  0  0
   -1.9790   10.5420    0.2080 O   0  0  0  0  0  0  0  0  0  0  0  0
    0.1630   10.7730    0.0500 O   0  0  0  0  0  0  0  0  0  0  0  0
   -1.8940   11.5000    0.0000 H   0  0  0  0  0  0  0  0  0  0  0  0
  1  5  1  0  0  0  0
  2  1  1  0  0  0  0
  3  2  2  0  0  0  0
  4  2  1  1  0  0  0
  4 10  5  0  0  0  0
  6  4  5  0  0  0  0
  6  7  5  0  0  0  0
  6 13  1  6  0  0  0
  7 12  1  6  0  0  0
  8  7  5  0  0  0  0
  8  9  5  1  0  0  0
  8 11  1  0  0  0  0
  9 15  1  0  0  0  0
 10  9  5  0  0  0  0
 10 14  1  0  0  0  0
 11 19  5  1  0  0  0
 11 23  5  0  0  0  0
 12 16  1  0  0  0  0
 12 17  1  0  0  0  0
 12 18  1  0  0  0  0
 19 20  5  0  0  0  0
 19 26  1  0  0  0  0
 20 25  1  0  0  0  0
 21 20  5  0  0  0  0
 21 24  1  6  0  0  0
 22 21  5  0  0  0  0
 22 28  1  0  0  0  0
 23 22  5  0  0  0  0
 23 27  1  6  0  0  0
 24 36  2  0  0  0  0
 27 33  1  0  0  0  0
 27 34  1  0  0  0  0
 29 30  1  0  0  0  0
 29 31  1  0  0  0  0
 29 32  1  0  0  0  0
 29 27  1  0  0  0  0
 35 24  1  0  0  0  0
 37 35  1  0  0  0  0
M  END
