
 OpenBabel02032115563D

 36 37  0  0  1  0  0  0  0  0999 V2000
    1.6340    1.0410   -0.0740 O   0  0  0  0  0  0  0  0  0  0  0  0
    1.1800    2.3730   -0.0990 C   0  0  0  0  0  0  0  0  0  0  0  0
    0.0150    2.0680   -0.2490 O   0  0  0  0  0  0  0  0  0  0  0  0
    1.1170    3.9140   -0.0660 C   0  0  1  0  0  0  0  0  0  0  0  0
    2.5030    0.4170    0.0000 H   0  0  0  0  0  0  0  0  0  0  0  0
   -0.0390    4.6280   -0.2190 C   0  0  0  0  0  0  0  0  0  0  0  0
   -0.1660    5.9970   -0.1890 C   0  0  2  0  0  0  0  0  0  0  0  0
    0.8590    6.9510   -0.0210 C   0  0  1  0  0  0  0  0  0  0  0  0
    2.0160    6.1520    0.1540 C   0  0  0  0  0  0  0  0  0  0  0  0
    2.1480    4.7730    0.1320 C   0  0  1  0  0  0  0  0  0  0  0  0
    0.7330    8.3380   -0.4520 C   0  0  0  0  0  0  0  0  0  0  0  0
   -1.2120    6.3660   -0.3090 C   0  0  0  0  0  0  0  0  0  0  0  0
   -0.9670    4.0710   -0.3760 H   0  0  0  0  0  0  0  0  0  0  0  0
    3.3710    4.2600    0.3350 N   0  0  0  0  0  0  0  0  0  0  0  0
    2.9280    6.7170    0.3340 H   0  0  0  0  0  0  0  0  0  0  0  0
    3.8250    3.7700   -0.4330 H   0  0  0  0  0  0  0  0  0  0  0  0
    3.5210    3.6820    1.1600 H   0  0  0  0  0  0  0  0  0  0  0  0
    0.4820    9.5030    0.2730 C   0  0  0  0  0  0  0  0  0  0  0  0
    0.0940   11.0230   -0.2330 C   0  0  2  0  0  0  0  0  0  0  0  0
    0.3980    9.3920    1.3520 H   0  0  0  0  0  0  0  0  0  0  0  0
    0.7530    8.4710   -1.5310 H   0  0  0  0  0  0  0  0  0  0  0  0
   -2.2510    6.7200   -0.6320 N   0  0  0  0  0  0  0  0  0  0  0  0
    0.9270   12.4000    0.0080 C   0  0  0  0  0  0  0  0  0  0  0  0
   -0.0570   13.6720    0.3090 C   0  0  2  0  0  0  0  0  0  0  0  0
   -1.3270   12.9890   -0.0600 N   0  0  0  0  0  0  0  0  0  0  0  0
   -1.1850   11.5520    0.3180 N   0  0  0  0  0  0  0  0  0  0  0  0
    0.1640   15.1930   -0.2860 C   0  0  0  0  0  0  0  0  0  0  0  0
   -2.0130   11.0670   -0.0260 H   0  0  0  0  0  0  0  0  0  0  0  0
   -1.4160   12.9690   -1.0740 H   0  0  0  0  0  0  0  0  0  0  0  0
    1.6140   12.2720    0.8470 H   0  0  0  0  0  0  0  0  0  0  0  0
   -0.0760   13.8050    1.3940 H   0  0  0  0  0  0  0  0  0  0  0  0
    1.5310   12.6020   -0.8800 H   0  0  0  0  0  0  0  0  0  0  0  0
   -0.0550   10.9490   -1.3140 H   0  0  0  0  0  0  0  0  0  0  0  0
   -0.3450   16.3360    0.3310 O   0  0  0  0  0  0  0  0  0  0  0  0
    0.7960   15.3280   -1.3130 O   0  0  0  0  0  0  0  0  0  0  0  0
   -0.2450   17.3810    0.0000 H   0  0  0  0  0  0  0  0  0  0  0  0
  1  5  1  0  0  0  0
  2  1  1  0  0  0  0
  3  2  2  0  0  0  0
  4  2  1  1  0  0  0
  4 10  5  0  0  0  0
  6  4  5  0  0  0  0
  6  7  5  0  0  0  0
  6 13  1  0  0  0  0
  7 12  1  1  0  0  0
  8  7  5  0  0  0  0
  8 11  1  6  0  0  0
  9  8  5  0  0  0  0
  9 15  1  0  0  0  0
 10  9  5  0  0  0  0
 10 14  1  1  0  0  0
 11 21  1  0  0  0  0
 12 22  3  0  0  0  0
 14 16  1  0  0  0  0
 14 17  1  0  0  0  0
 18 11  2  0  0  0  0
 18 20  1  0  0  0  0
 19 18  1  0  0  0  0
 19 26  1  0  0  0  0
 19 33  1  6  0  0  0
 23 19  1  0  0  0  0
 23 30  1  0  0  0  0
 23 32  1  0  0  0  0
 24 23  1  0  0  0  0
 24 31  1  1  0  0  0
 25 24  1  0  0  0  0
 26 25  1  0  0  0  0
 27 24  1  0  0  0  0
 27 35  2  0  0  0  0
 28 26  1  0  0  0  0
 29 25  1  0  0  0  0
 34 27  1  0  0  0  0
 36 34  1  0  0  0  0
M  END
