
 OpenBabel02032115563D

 33 34  0  0  1  0  0  0  0  0999 V2000
    1.7640   -0.2040    0.0670 O   0  0  0  0  0  0  0  0  0  0  0  0
    0.6040    0.4110    0.1030 C   0  0  0  0  0  0  0  0  0  0  0  0
   -0.3670   -0.3170    0.1610 O   0  0  0  0  0  0  0  0  0  0  0  0
    0.3560    1.8250    0.0460 C   0  0  2  0  0  0  0  0  0  0  0  0
    2.5030    0.4170    0.0000 H   0  0  0  0  0  0  0  0  0  0  0  0
   -0.8970    2.3070    0.0860 C   0  0  0  0  0  0  0  0  0  0  0  0
   -1.1310    3.6280    0.0020 C   0  0  1  0  0  0  0  0  0  0  0  0
   -0.1150    4.5010   -0.1250 C   0  0  1  0  0  0  0  0  0  0  0  0
    1.1330    4.0130   -0.1450 C   0  0  0  0  0  0  0  0  0  0  0  0
    1.3650    2.6970   -0.0590 C   0  0  0  0  0  0  0  0  0  0  0  0
   -0.4100    5.9970   -0.2890 C   0  0  2  0  0  0  0  0  0  0  0  0
   -2.2180    3.8710    0.0320 C   0  0  0  0  0  0  0  0  0  0  0  0
   -1.7320    1.6070    0.1780 H   0  0  0  0  0  0  0  0  0  0  0  0
    2.3940    2.3450   -0.0890 H   0  0  0  0  0  0  0  0  0  0  0  0
    1.9810    4.6860   -0.2480 H   0  0  0  0  0  0  0  0  0  0  0  0
    0.6390    7.0290    0.1720 C   0  0  0  0  0  0  0  0  0  0  0  0
   -0.0450    8.3340    0.2480 N   0  0  0  0  0  0  0  0  0  0  0  0
   -1.0880    8.0260    0.4260 N   0  0  0  0  0  0  0  0  0  0  0  0
   -1.0150    6.9190   -0.3330 N   0  0  0  0  0  0  0  0  0  0  0  0
    0.6520    9.4630    0.1600 N   0  0  0  0  0  0  0  0  0  0  0  0
    1.4620    7.0850   -0.5490 H   0  0  0  0  0  0  0  0  0  0  0  0
    1.0460    6.7640    1.1550 H   0  0  0  0  0  0  0  0  0  0  0  0
   -0.7570    6.2150   -1.3040 H   0  0  0  0  0  0  0  0  0  0  0  0
    1.5180   10.3980    0.0460 N   0  0  0  0  0  0  0  0  0  0  0  0
    0.9180   11.6830    0.0330 C   0  0  0  0  0  0  0  0  0  0  0  0
   -0.1460   12.5000    0.0400 C   0  0  0  0  0  0  0  0  0  0  0  0
   -0.1380   13.9810    0.0110 C   0  0  0  0  0  0  0  0  0  0  0  0
   -1.1240   12.0200    0.0670 H   0  0  0  0  0  0  0  0  0  0  0  0
    2.0100   11.5440    0.0130 H   0  0  0  0  0  0  0  0  0  0  0  0
   -3.2760    4.2920   -0.0770 N   0  0  0  0  0  0  0  0  0  0  0  0
   -1.3270   14.5270    0.0210 O   0  0  0  0  0  0  0  0  0  0  0  0
    0.8760   14.6470   -0.0180 O   0  0  0  0  0  0  0  0  0  0  0  0
   -1.2130   15.4990    0.0000 H   0  0  0  0  0  0  0  0  0  0  0  0
  1  5  1  0  0  0  0
  2  1  1  0  0  0  0
  3  2  2  0  0  0  0
  4  2  1  6  0  0  0
  4 10  5  0  0  0  0
  6  4  5  0  0  0  0
  6  7  5  0  0  0  0
  6 13  1  0  0  0  0
  7 12  1  6  0  0  0
  8  7  5  0  0  0  0
  8  9  5  6  0  0  0
  8 11  1  0  0  0  0
  9 15  1  0  0  0  0
 10  9  5  0  0  0  0
 10 14  1  0  0  0  0
 11 19  1  0  0  0  0
 11 23  1  6  0  0  0
 12 30  3  0  0  0  0
 16 11  1  0  0  0  0
 16 21  1  0  0  0  0
 16 22  1  0  0  0  0
 17 16  1  0  0  0  0
 18 17  1  0  0  0  0
 19 18  2  0  0  0  0
 20 17  1  0  0  0  0
 24 20  2  0  0  0  0
 25 24  1  0  0  0  0
 25 29  1  0  0  0  0
 26 25  2  0  0  0  0
 26 28  1  0  0  0  0
 27 26  1  0  0  0  0
 27 32  2  0  0  0  0
 31 27  1  0  0  0  0
 33 31  1  0  0  0  0
M  END
