
 OpenBabel02032115563D

 38 39  0  0  1  0  0  0  0  0999 V2000
    2.5070    1.4810    0.1670 O   0  0  0  0  0  0  0  0  0  0  0  0
    1.4810    2.3250   -0.2040 C   0  0  0  0  0  0  0  0  0  0  0  0
    0.6390    1.6430   -0.7490 O   0  0  0  0  0  0  0  0  0  0  0  0
    1.1240    3.8090   -0.1680 C   0  0  2  0  0  0  0  0  0  0  0  0
    2.5030    0.4170    0.0000 H   0  0  0  0  0  0  0  0  0  0  0  0
   -0.0650    4.3390   -0.5990 C   0  0  1  0  0  0  0  0  0  0  0  0
   -0.3450    5.6730   -0.5850 C   0  0  0  0  0  0  0  0  0  0  0  0
    0.4660    6.6570   -0.1460 C   0  0  1  0  0  0  0  0  0  0  0  0
    1.6410    6.1300    0.3110 C   0  0  1  0  0  0  0  0  0  0  0  0
    1.9640    4.7810    0.2990 C   0  0  1  0  0  0  0  0  0  0  0  0
   -0.0960    8.2110   -0.2490 C   0  0  2  0  0  0  0  0  0  0  0  0
   -1.3200    5.9750   -0.9660 H   0  0  0  0  0  0  0  0  0  0  0  0
   -2.0340    3.0810   -0.1270 C   0  0  0  0  0  0  0  0  0  0  0  0
    4.2120    4.1760   -0.2050 C   0  0  0  0  0  0  0  0  0  0  0  0
    2.3160    6.9210    0.6960 C   0  0  0  0  0  0  0  0  0  0  0  0
    0.6850    9.6240   -0.3190 C   0  0  0  0  0  0  0  0  0  0  0  0
   -0.2440   10.8040    0.2960 C   0  0  2  0  0  0  0  0  0  0  0  0
   -1.5060   10.0260    0.4250 N   0  0  0  0  0  0  0  0  0  0  0  0
   -1.1290    8.6170    0.7340 N   0  0  0  0  0  0  0  0  0  0  0  0
   -0.3790   12.2850   -0.3710 C   0  0  0  0  0  0  0  0  0  0  0  0
   -1.9880    8.0730    0.6540 H   0  0  0  0  0  0  0  0  0  0  0  0
   -1.9510    9.9670   -0.4900 H   0  0  0  0  0  0  0  0  0  0  0  0
    1.6150    9.5910    0.2470 H   0  0  0  0  0  0  0  0  0  0  0  0
    0.1130   10.9920    1.3120 H   0  0  0  0  0  0  0  0  0  0  0  0
    0.9400    9.8450   -1.3580 H   0  0  0  0  0  0  0  0  0  0  0  0
   -0.6310    8.2000   -1.2040 H   0  0  0  0  0  0  0  0  0  0  0  0
    3.1840    7.5600    1.0760 N   0  0  0  0  0  0  0  0  0  0  0  0
   -1.5240    2.4370    0.5940 H   0  0  0  0  0  0  0  0  0  0  0  0
   -2.8010    2.5000   -0.6470 H   0  0  0  0  0  0  0  0  0  0  0  0
   -2.5040    3.9200    0.3920 H   0  0  0  0  0  0  0  0  0  0  0  0
   -1.0830    3.5750   -1.1050 O   0  0  0  0  0  0  0  0  0  0  0  0
    5.0520    3.6570    0.2630 H   0  0  0  0  0  0  0  0  0  0  0  0
    3.8300    3.5670   -1.0300 H   0  0  0  0  0  0  0  0  0  0  0  0
    4.5420    5.1460   -0.5840 H   0  0  0  0  0  0  0  0  0  0  0  0
    3.1790    4.3710    0.7910 O   0  0  0  0  0  0  0  0  0  0  0  0
   -0.7430   13.3880    0.3770 O   0  0  0  0  0  0  0  0  0  0  0  0
   -0.1730   12.4240   -1.5590 O   0  0  0  0  0  0  0  0  0  0  0  0
   -0.8530   14.3960    0.0000 H   0  0  0  0  0  0  0  0  0  0  0  0
  1  5  1  0  0  0  0
  2  1  1  0  0  0  0
  3  2  2  0  0  0  0
  4  2  1  6  0  0  0
  4 10  5  0  0  0  0
  6  4  5  0  0  0  0
  6  7  5  0  0  0  0
  6 31  1  6  0  0  0
  7 12  1  0  0  0  0
  8  7  5  6  0  0  0
  8 11  1  0  0  0  0
  9  8  5  0  0  0  0
  9 15  1  6  0  0  0
 10  9  5  0  0  0  0
 10 35  1  1  0  0  0
 11 19  1  0  0  0  0
 11 26  1  6  0  0  0
 13 28  1  0  0  0  0
 13 29  1  0  0  0  0
 13 30  1  0  0  0  0
 13 31  1  0  0  0  0
 14 32  1  0  0  0  0
 14 33  1  0  0  0  0
 14 34  1  0  0  0  0
 14 35  1  0  0  0  0
 15 27  3  0  0  0  0
 16 11  1  0  0  0  0
 16 23  1  0  0  0  0
 16 25  1  0  0  0  0
 17 16  1  0  0  0  0
 17 24  1  1  0  0  0
 18 17  1  0  0  0  0
 19 18  1  0  0  0  0
 20 17  1  0  0  0  0
 20 37  2  0  0  0  0
 21 19  1  0  0  0  0
 22 18  1  0  0  0  0
 36 20  1  0  0  0  0
 38 36  1  0  0  0  0
M  END
