
 OpenBabel02052118083D

 48 51  0  0  1  0  0  0  0  0999 V2000
    1.6180    0.0980   -0.2290 O   0  0  0  0  0  0  0  0  0  0  0  0
    0.6300    0.9750   -0.3250 C   0  0  0  0  0  0  0  0  0  0  0  0
   -0.3950    0.3710   -0.5450 O   0  0  0  0  0  0  0  0  0  0  0  0
    0.5070    2.4240   -0.2770 C   0  0  2  0  0  0  0  0  0  0  0  0
    2.5030    0.4170    0.0000 H   0  0  0  0  0  0  0  0  0  0  0  0
   -0.6660    3.1130   -0.3040 C   0  0  2  0  0  0  0  0  0  0  0  0
   -0.6870    4.4500   -0.2640 C   0  0  0  0  0  0  0  0  0  0  0  0
    0.4200    5.1910   -0.1940 C   0  0  2  0  0  0  0  0  0  0  0  0
    1.5840    4.5240   -0.1660 C   0  0  0  0  0  0  0  0  0  0  0  0
    1.6220    3.1760   -0.2040 C   0  0  0  0  0  0  0  0  0  0  0  0
    0.2270    6.7270   -0.1140 C   0  0  1  0  0  0  0  0  0  0  0  0
   -1.6500    4.9580   -0.2820 H   0  0  0  0  0  0  0  0  0  0  0  0
   -2.4200    2.3820   -0.3610 Br  0  0  0  0  0  0  0  0  0  0  0  0
    2.5930    2.6860   -0.1770 H   0  0  0  0  0  0  0  0  0  0  0  0
    2.5190    5.0730   -0.1020 H   0  0  0  0  0  0  0  0  0  0  0  0
    1.3290    7.6710    0.3740 C   0  0  0  0  0  0  0  0  0  0  0  0
    0.8950    8.8960   -0.3360 N   0  0  0  0  0  0  0  0  0  0  0  0
    0.0460    8.6410   -1.3360 N   0  0  0  0  0  0  0  0  0  0  0  0
   -0.1160    7.3680   -1.4150 N   0  0  0  0  0  0  0  0  0  0  0  0
    1.0110   10.2110    0.3890 C   0  0  1  0  0  0  0  0  0  0  0  0
    1.3130    7.7830    1.4610 H   0  0  0  0  0  0  0  0  0  0  0  0
    2.3130    7.3600    0.0160 H   0  0  0  0  0  0  0  0  0  0  0  0
   -0.6320    6.9020    0.5430 H   0  0  0  0  0  0  0  0  0  0  0  0
    0.9970   11.5450   -0.4150 C   0  0  0  0  0  0  0  0  0  0  0  0
    0.6540   12.5500    0.7210 C   0  0  2  0  0  0  0  0  0  0  0  0
   -0.4030   11.8150    1.4490 N   0  0  0  0  0  0  0  0  0  0  0  0
   -0.1190   10.3790    1.3250 N   0  0  0  0  0  0  0  0  0  0  0  0
    0.1740   14.0260    0.4300 C   0  0  1  0  0  0  0  0  0  0  0  0
    0.1020   10.0430    2.2600 H   0  0  0  0  0  0  0  0  0  0  0  0
   -1.2960   11.9150    0.9700 H   0  0  0  0  0  0  0  0  0  0  0  0
    1.9640   11.7560   -0.8750 H   0  0  0  0  0  0  0  0  0  0  0  0
    1.5260   12.6120    1.3790 H   0  0  0  0  0  0  0  0  0  0  0  0
    0.2200   11.5300   -1.1830 H   0  0  0  0  0  0  0  0  0  0  0  0
    1.9330   10.1840    0.9880 H   0  0  0  0  0  0  0  0  0  0  0  0
    1.2060   15.0220    0.1420 O   0  0  0  0  0  0  0  0  0  0  0  0
   -0.8410   15.7750   -0.8200 C   0  0  0  0  0  0  0  0  0  0  0  0
   -0.8380   14.2410   -0.6980 C   0  0  0  0  0  0  0  0  0  0  0  0
    0.7320   17.5570    0.1930 C   0  0  0  0  0  0  0  0  0  0  0  0
   -1.8260   13.8480   -0.4500 H   0  0  0  0  0  0  0  0  0  0  0  0
   -1.5020   16.2000   -0.0600 H   0  0  0  0  0  0  0  0  0  0  0  0
   -1.1810   16.1060   -1.8040 H   0  0  0  0  0  0  0  0  0  0  0  0
   -0.4860   13.7870   -1.6270 H   0  0  0  0  0  0  0  0  0  0  0  0
    1.1410   16.3130   -1.4950 H   0  0  0  0  0  0  0  0  0  0  0  0
    0.6180   16.1980   -0.5420 C   0  0  1  0  0  0  0  0  0  0  0  0
   -0.2990   14.3770    1.3530 H   0  0  0  0  0  0  0  0  0  0  0  0
    0.3110   18.6090   -0.4960 O   0  0  0  0  0  0  0  0  0  0  0  0
    1.1810   17.6700    1.3150 O   0  0  0  0  0  0  0  0  0  0  0  0
    0.4110   19.4760    0.0000 H   0  0  0  0  0  0  0  0  0  0  0  0
  1  5  1  0  0  0  0
  2  1  1  0  0  0  0
  3  2  2  0  0  0  0
  4  2  1  6  0  0  0
  4 10  5  0  0  0  0
  6  4  5  0  0  0  0
  6  7  5  0  0  0  0
  6 13  1  1  0  0  0
  7 12  1  0  0  0  0
  8  7  5  1  0  0  0
  8 11  1  0  0  0  0
  9  8  5  0  0  0  0
  9 15  1  0  0  0  0
 10  9  5  0  0  0  0
 10 14  1  0  0  0  0
 11 19  1  0  0  0  0
 11 23  1  1  0  0  0
 16 11  1  0  0  0  0
 16 21  1  0  0  0  0
 16 22  1  0  0  0  0
 17 16  1  0  0  0  0
 18 17  1  0  0  0  0
 19 18  2  0  0  0  0
 20 17  1  0  0  0  0
 20 27  1  0  0  0  0
 20 34  1  1  0  0  0
 24 20  1  0  0  0  0
 24 31  1  0  0  0  0
 24 33  1  0  0  0  0
 25 24  1  0  0  0  0
 25 32  1  1  0  0  0
 26 25  1  0  0  0  0
 27 26  1  0  0  0  0
 28 25  1  0  0  0  0
 28 37  1  0  0  0  0
 28 45  1  1  0  0  0
 29 27  1  0  0  0  0
 30 26  1  0  0  0  0
 35 28  1  0  0  0  0
 36 44  1  0  0  0  0
 36 41  1  0  0  0  0
 37 36  1  0  0  0  0
 37 42  1  0  0  0  0
 38 44  1  0  0  0  0
 38 47  2  0  0  0  0
 39 37  1  0  0  0  0
 40 36  1  0  0  0  0
 44 35  1  0  0  0  0
 44 43  1  6  0  0  0
 46 38  1  0  0  0  0
 48 46  1  0  0  0  0
M  END
