
 OpenBabel02032115563D

 39 40  0  0  1  0  0  0  0  0999 V2000
    1.5840    0.1100   -0.0060 O   0  0  0  0  0  0  0  0  0  0  0  0
    0.6620    1.0520   -0.0920 C   0  0  0  0  0  0  0  0  0  0  0  0
   -0.4550    0.5810   -0.1860 O   0  0  0  0  0  0  0  0  0  0  0  0
    0.7140    2.4950   -0.0720 C   0  0  1  0  0  0  0  0  0  0  0  0
    2.5030    0.4170    0.0000 H   0  0  0  0  0  0  0  0  0  0  0  0
   -0.3970    3.2310   -0.2470 C   0  0  0  0  0  0  0  0  0  0  0  0
   -0.4010    4.5690   -0.2190 C   0  0  1  0  0  0  0  0  0  0  0  0
    0.7840    5.2540   -0.0240 C   0  0  1  0  0  0  0  0  0  0  0  0
    1.9210    4.4930    0.1660 C   0  0  0  0  0  0  0  0  0  0  0  0
    1.8600    3.1520    0.1340 C   0  0  0  0  0  0  0  0  0  0  0  0
    0.9400    6.6140   -0.2350 C   0  0  0  0  0  0  0  0  0  0  0  0
   -2.7860    4.8250    0.1300 C   0  0  0  0  0  0  0  0  0  0  0  0
   -1.3410    2.7270   -0.4250 H   0  0  0  0  0  0  0  0  0  0  0  0
    2.7770    2.5890    0.2880 H   0  0  0  0  0  0  0  0  0  0  0  0
    2.8770    4.9800    0.3440 H   0  0  0  0  0  0  0  0  0  0  0  0
    0.2400    7.5820    0.4070 C   0  0  0  0  0  0  0  0  0  0  0  0
    0.2650    9.0080    0.1180 C   0  0  0  0  0  0  0  0  0  0  0  0
   -0.5010    7.2970    1.1520 H   0  0  0  0  0  0  0  0  0  0  0  0
    1.6440    6.9210   -1.0040 H   0  0  0  0  0  0  0  0  0  0  0  0
    0.1040   10.2060   -0.1250 C   0  0  0  0  0  0  0  0  0  0  0  0
   -0.3110   11.5970   -0.4940 C   0  0  2  0  0  0  0  0  0  0  0  0
    0.3440   12.7170    0.1990 O   0  0  0  0  0  0  0  0  0  0  0  0
   -1.9350   13.3360   -0.1410 C   0  0  0  0  0  0  0  0  0  0  0  0
   -1.7980   11.8170   -0.1950 C   0  0  0  0  0  0  0  0  0  0  0  0
   -0.2500   15.2330    0.0160 C   0  0  0  0  0  0  0  0  0  0  0  0
   -2.0570   11.3900    0.7790 H   0  0  0  0  0  0  0  0  0  0  0  0
   -2.0340   13.7340   -1.1540 H   0  0  0  0  0  0  0  0  0  0  0  0
   -2.7980   13.6470    0.4510 H   0  0  0  0  0  0  0  0  0  0  0  0
   -2.4400   11.3750   -0.9600 H   0  0  0  0  0  0  0  0  0  0  0  0
   -0.7300   13.8550    1.5720 H   0  0  0  0  0  0  0  0  0  0  0  0
   -0.6140   13.8090    0.4860 C   0  0  2  0  0  0  0  0  0  0  0  0
   -0.1380   11.7340   -1.5650 H   0  0  0  0  0  0  0  0  0  0  0  0
   -3.1050    3.9370   -0.4210 H   0  0  0  0  0  0  0  0  0  0  0  0
   -2.6640    4.5870    1.1910 H   0  0  0  0  0  0  0  0  0  0  0  0
   -3.5480    5.6010    0.0180 H   0  0  0  0  0  0  0  0  0  0  0  0
   -1.5320    5.3260   -0.4020 O   0  0  0  0  0  0  0  0  0  0  0  0
   -1.1210   16.1580    0.3920 O   0  0  0  0  0  0  0  0  0  0  0  0
    0.6350   15.4720   -0.7800 O   0  0  0  0  0  0  0  0  0  0  0  0
   -0.9370   17.0560    0.0000 H   0  0  0  0  0  0  0  0  0  0  0  0
  1  5  1  0  0  0  0
  2  1  1  0  0  0  0
  3  2  2  0  0  0  0
  4  2  1  1  0  0  0
  4 10  5  0  0  0  0
  6  4  5  0  0  0  0
  6  7  5  0  0  0  0
  6 13  1  0  0  0  0
  7 36  1  6  0  0  0
  8  7  5  0  0  0  0
  8 11  1  6  0  0  0
  9  8  5  0  0  0  0
  9 15  1  0  0  0  0
 10  9  5  0  0  0  0
 10 14  1  0  0  0  0
 11 19  1  0  0  0  0
 12 33  1  0  0  0  0
 12 34  1  0  0  0  0
 12 35  1  0  0  0  0
 12 36  1  0  0  0  0
 16 11  2  0  0  0  0
 16 18  1  0  0  0  0
 17 16  1  0  0  0  0
 20 17  3  0  0  0  0
 21 20  1  0  0  0  0
 21 24  1  0  0  0  0
 21 32  1  6  0  0  0
 22 21  1  0  0  0  0
 23 31  1  0  0  0  0
 23 28  1  0  0  0  0
 24 23  1  0  0  0  0
 24 29  1  0  0  0  0
 25 31  1  0  0  0  0
 25 38  2  0  0  0  0
 26 24  1  0  0  0  0
 27 23  1  0  0  0  0
 31 22  1  0  0  0  0
 31 30  1  1  0  0  0
 37 25  1  0  0  0  0
 39 37  1  0  0  0  0
M  END
