
 OpenBabel02032115573D

 21 21  0  0  1  0  0  0  0  0999 V2000
    2.1440    1.3490   -0.3420 O   0  0  0  0  0  0  0  0  0  0  0  0
    0.8270    1.6250   -0.6010 C   0  0  0  0  0  0  0  0  0  0  0  0
    0.1090    0.6610   -0.4360 O   0  0  0  0  0  0  0  0  0  0  0  0
    0.1300    2.9200   -0.9210 C   0  0  1  0  0  0  0  0  0  0  0  0
    2.5030    0.4170    0.0000 H   0  0  0  0  0  0  0  0  0  0  0  0
   -1.1720    3.2490   -0.6120 C   0  0  2  0  0  0  0  0  0  0  0  0
   -1.6570    4.5370   -0.6950 C   0  0  2  0  0  0  0  0  0  0  0  0
   -0.8760    5.5880   -1.0350 C   0  0  2  0  0  0  0  0  0  0  0  0
    0.3700    5.2030   -1.3680 C   0  0  2  0  0  0  0  0  0  0  0  0
    0.8180    3.9370   -1.4780 C   0  0  1  0  0  0  0  0  0  0  0  0
   -1.1670    7.0510   -0.8200 C   0  0  0  0  0  0  0  0  0  0  0  0
   -3.2900    4.8750   -0.2200 Cl  0  0  0  0  0  0  0  0  0  0  0  0
   -2.0290    2.3180   -0.1470 N   0  0  0  0  0  0  0  0  0  0  0  0
    2.4580    3.7520   -2.0230 Cl  0  0  0  0  0  0  0  0  0  0  0  0
    1.0830    5.5930   -0.3810 O   0  0  0  0  0  0  0  0  0  0  0  0
    0.5990    4.7980    0.0000 H   0  0  0  0  0  0  0  0  0  0  0  0
   -2.9960    2.3320   -0.4680 H   0  0  0  0  0  0  0  0  0  0  0  0
   -2.0570    2.1130    0.8500 H   0  0  0  0  0  0  0  0  0  0  0  0
   -1.9680    7.8490   -0.0510 O   0  0  0  0  0  0  0  0  0  0  0  0
   -0.4400    7.7440   -1.5070 O   0  0  0  0  0  0  0  0  0  0  0  0
   -1.8230    8.9020    0.0000 H   0  0  0  0  0  0  0  0  0  0  0  0
  1  5  1  0  0  0  0
  2  1  1  0  0  0  0
  3  2  2  0  0  0  0
  4  2  1  1  0  0  0
  4 10  5  0  0  0  0
  6  4  5  0  0  0  0
  6  7  5  0  0  0  0
  6 13  1  1  0  0  0
  7 12  1  1  0  0  0
  8  7  5  0  0  0  0
  8 11  1  1  0  0  0
  9  8  5  0  0  0  0
  9 15  1  1  0  0  0
 10  9  5  0  0  0  0
 10 14  1  1  0  0  0
 11 20  2  0  0  0  0
 13 17  1  0  0  0  0
 13 18  1  0  0  0  0
 15 16  1  0  0  0  0
 19 11  1  0  0  0  0
 21 19  1  0  0  0  0
M  END
