
 OpenBabel02032115573D

 49 52  0  0  1  0  0  0  0  0999 V2000
    1.8060   -0.2580    0.0080 O   0  0  0  0  0  0  0  0  0  0  0  0
    0.6340    0.3290   -0.0030 C   0  0  0  0  0  0  0  0  0  0  0  0
   -0.3500   -0.3860    0.0020 O   0  0  0  0  0  0  0  0  0  0  0  0
    0.4420    1.7460   -0.0200 C   0  0  1  0  0  0  0  0  0  0  0  0
    2.5030    0.4170    0.0000 H   0  0  0  0  0  0  0  0  0  0  0  0
   -0.7790    2.2880   -0.0360 C   0  0  0  0  0  0  0  0  0  0  0  0
   -0.9510    3.6130   -0.0510 C   0  0  0  0  0  0  0  0  0  0  0  0
    0.0830    4.4850   -0.0480 C   0  0  2  0  0  0  0  0  0  0  0  0
    1.3060    3.9070   -0.0320 C   0  0  0  0  0  0  0  0  0  0  0  0
    1.4820    2.5820   -0.0190 C   0  0  0  0  0  0  0  0  0  0  0  0
   -0.0950    5.8420   -0.0580 C   0  0  1  0  0  0  0  0  0  0  0  0
   -1.9860    3.9260   -0.0590 H   0  0  0  0  0  0  0  0  0  0  0  0
   -1.6660    1.6570   -0.0370 H   0  0  0  0  0  0  0  0  0  0  0  0
    2.4980    2.1960   -0.0060 H   0  0  0  0  0  0  0  0  0  0  0  0
    2.2230    4.4770   -0.0300 H   0  0  0  0  0  0  0  0  0  0  0  0
   -1.3170    6.4200   -0.0900 C   0  0  0  0  0  0  0  0  0  0  0  0
   -1.4880    7.7460   -0.0910 C   0  0  0  0  0  0  0  0  0  0  0  0
   -0.4530    8.5880   -0.0580 C   0  0  2  0  0  0  0  0  0  0  0  0
    0.7650    8.0440   -0.0300 C   0  0  0  0  0  0  0  0  0  0  0  0
    0.9370    6.7170   -0.0310 C   0  0  0  0  0  0  0  0  0  0  0  0
   -0.7180   10.0990   -0.0300 C   0  0  1  0  0  0  0  0  0  0  0  0
   -2.5000    8.1430   -0.1110 H   0  0  0  0  0  0  0  0  0  0  0  0
   -2.2360    5.8510   -0.1170 H   0  0  0  0  0  0  0  0  0  0  0  0
    1.9700    6.4010   -0.0010 H   0  0  0  0  0  0  0  0  0  0  0  0
    1.6470    8.6750    0.0020 H   0  0  0  0  0  0  0  0  0  0  0  0
    0.5040   11.0520   -0.1540 C   0  0  0  0  0  0  0  0  0  0  0  0
    0.0700   12.4770   -0.1090 N   0  0  0  0  0  0  0  0  0  0  0  0
   -0.8260   12.1980   -0.6930 N   0  0  0  0  0  0  0  0  0  0  0  0
   -1.2760   10.9540   -0.4480 N   0  0  0  0  0  0  0  0  0  0  0  0
    0.0610   13.8820   -0.0050 C   0  0  0  0  0  0  0  0  0  0  0  0
    1.1760   10.8730    0.6910 H   0  0  0  0  0  0  0  0  0  0  0  0
    1.0700   10.8430   -1.0740 H   0  0  0  0  0  0  0  0  0  0  0  0
   -1.2930   10.3410    0.8700 H   0  0  0  0  0  0  0  0  0  0  0  0
    0.0030   15.0580    0.1610 C   0  0  0  0  0  0  0  0  0  0  0  0
   -0.2090   16.4810    0.5340 C   0  0  1  0  0  0  0  0  0  0  0  0
    0.7050   17.5880   -0.0320 C   0  0  0  0  0  0  0  0  0  0  0  0
   -0.1180   18.8270    0.4000 C   0  0  2  0  0  0  0  0  0  0  0  0
   -1.4980   18.4270    0.0590 N   0  0  0  0  0  0  0  0  0  0  0  0
   -1.5670   16.9680    0.2200 N   0  0  0  0  0  0  0  0  0  0  0  0
    0.2660   20.2010   -0.1660 C   0  0  0  0  0  0  0  0  0  0  0  0
   -2.2170   16.7870    0.9820 H   0  0  0  0  0  0  0  0  0  0  0  0
   -1.6630   18.5660   -0.9370 H   0  0  0  0  0  0  0  0  0  0  0  0
    1.7040   17.5750    0.4120 H   0  0  0  0  0  0  0  0  0  0  0  0
   -0.0460   18.9200    1.4880 H   0  0  0  0  0  0  0  0  0  0  0  0
    0.7840   17.5220   -1.1210 H   0  0  0  0  0  0  0  0  0  0  0  0
   -0.0980   16.5180    1.6220 H   0  0  0  0  0  0  0  0  0  0  0  0
   -0.4110   21.1940    0.3790 O   0  0  0  0  0  0  0  0  0  0  0  0
    1.1130   20.3760   -1.0170 O   0  0  0  0  0  0  0  0  0  0  0  0
   -0.1590   22.0730    0.0000 H   0  0  0  0  0  0  0  0  0  0  0  0
  1  5  1  0  0  0  0
  2  1  1  0  0  0  0
  3  2  2  0  0  0  0
  4  2  1  1  0  0  0
  4 10  5  0  0  0  0
  6  4  5  0  0  0  0
  6  7  5  0  0  0  0
  6 13  1  0  0  0  0
  7 12  1  0  0  0  0
  8  7  5  1  0  0  0
  8 11  1  0  0  0  0
  9  8  5  0  0  0  0
  9 15  1  0  0  0  0
 10  9  5  0  0  0  0
 10 14  1  0  0  0  0
 11 16  5  1  0  0  0
 11 20  5  0  0  0  0
 16 17  5  0  0  0  0
 16 23  1  0  0  0  0
 17 22  1  0  0  0  0
 18 17  5  1  0  0  0
 18 21  1  0  0  0  0
 19 18  5  0  0  0  0
 19 25  1  0  0  0  0
 20 19  5  0  0  0  0
 20 24  1  0  0  0  0
 21 29  1  0  0  0  0
 21 33  1  1  0  0  0
 26 21  1  0  0  0  0
 26 31  1  0  0  0  0
 26 32  1  0  0  0  0
 27 26  1  0  0  0  0
 28 27  1  0  0  0  0
 29 28  2  0  0  0  0
 30 27  1  0  0  0  0
 34 30  3  0  0  0  0
 35 34  1  0  0  0  0
 35 39  1  0  0  0  0
 35 46  1  1  0  0  0
 36 35  1  0  0  0  0
 36 43  1  0  0  0  0
 36 45  1  0  0  0  0
 37 36  1  0  0  0  0
 37 44  1  1  0  0  0
 38 37  1  0  0  0  0
 39 38  1  0  0  0  0
 40 37  1  0  0  0  0
 40 48  2  0  0  0  0
 41 39  1  0  0  0  0
 42 38  1  0  0  0  0
 47 40  1  0  0  0  0
 49 47  1  0  0  0  0
M  END
