
 OpenBabel02032115573D

 32 33  0  0  1  0  0  0  0  0999 V2000
    1.7620   -0.1990   -0.0680 O   0  0  0  0  0  0  0  0  0  0  0  0
    0.5950    0.4060   -0.1130 C   0  0  0  0  0  0  0  0  0  0  0  0
   -0.3290   -0.3740   -0.1760 O   0  0  0  0  0  0  0  0  0  0  0  0
    0.3240    1.8280   -0.0980 C   0  0  1  0  0  0  0  0  0  0  0  0
    2.5030    0.4170    0.0000 H   0  0  0  0  0  0  0  0  0  0  0  0
   -0.9070    2.4060   -0.1120 C   0  0  2  0  0  0  0  0  0  0  0  0
   -1.0510    3.7470   -0.0900 C   0  0  2  0  0  0  0  0  0  0  0  0
    0.0280    4.5500   -0.0490 C   0  0  2  0  0  0  0  0  0  0  0  0
    1.2370    3.9810   -0.0420 C   0  0  0  0  0  0  0  0  0  0  0  0
    1.3790    2.6540   -0.0670 C   0  0  0  0  0  0  0  0  0  0  0  0
   -0.1680    6.0760    0.0010 C   0  0  1  0  0  0  0  0  0  0  0  0
   -2.2830    4.3010   -0.1080 N   0  0  0  0  0  0  0  0  0  0  0  0
   -2.5460    1.4220   -0.1490 Br  0  0  0  0  0  0  0  0  0  0  0  0
    2.3900    2.2550   -0.0590 H   0  0  0  0  0  0  0  0  0  0  0  0
    2.1330    4.5960   -0.0140 H   0  0  0  0  0  0  0  0  0  0  0  0
    1.0650    7.0160    0.0110 C   0  0  0  0  0  0  0  0  0  0  0  0
    0.5980    8.4320   -0.0440 N   0  0  0  0  0  0  0  0  0  0  0  0
   -0.1370    8.0540   -0.7790 N   0  0  0  0  0  0  0  0  0  0  0  0
   -0.7110    7.0260   -0.1340 N   0  0  0  0  0  0  0  0  0  0  0  0
    0.4980    9.7850   -0.0470 C   0  0  0  0  0  0  0  0  0  0  0  0
    1.7490    6.7810   -0.8200 H   0  0  0  0  0  0  0  0  0  0  0  0
    1.6210    6.8680    0.9430 H   0  0  0  0  0  0  0  0  0  0  0  0
   -0.8250    6.3310    0.8390 H   0  0  0  0  0  0  0  0  0  0  0  0
   -0.5040   10.6880    0.0360 C   0  0  0  0  0  0  0  0  0  0  0  0
   -0.3110   12.1620   -0.0000 C   0  0  0  0  0  0  0  0  0  0  0  0
   -1.5330   10.3410    0.1260 H   0  0  0  0  0  0  0  0  0  0  0  0
    1.5840    9.9460   -0.1310 H   0  0  0  0  0  0  0  0  0  0  0  0
   -2.4240    5.2690    0.1760 H   0  0  0  0  0  0  0  0  0  0  0  0
   -3.0980    3.7590    0.1740 H   0  0  0  0  0  0  0  0  0  0  0  0
   -1.4280   12.8490    0.0610 O   0  0  0  0  0  0  0  0  0  0  0  0
    0.7730   12.6980   -0.1020 O   0  0  0  0  0  0  0  0  0  0  0  0
   -1.2340   13.8070    0.0000 H   0  0  0  0  0  0  0  0  0  0  0  0
  1  5  1  0  0  0  0
  2  1  1  0  0  0  0
  3  2  2  0  0  0  0
  4  2  1  1  0  0  0
  4 10  5  0  0  0  0
  6  4  5  0  0  0  0
  6  7  5  0  0  0  0
  6 13  1  1  0  0  0
  7 12  1  1  0  0  0
  8  7  5  0  0  0  0
  8  9  5  1  0  0  0
  8 11  1  0  0  0  0
  9 15  1  0  0  0  0
 10  9  5  0  0  0  0
 10 14  1  0  0  0  0
 11 19  1  0  0  0  0
 11 23  1  1  0  0  0
 12 28  1  0  0  0  0
 12 29  1  0  0  0  0
 16 11  1  0  0  0  0
 16 21  1  0  0  0  0
 16 22  1  0  0  0  0
 17 16  1  0  0  0  0
 18 17  1  0  0  0  0
 19 18  2  0  0  0  0
 20 17  1  0  0  0  0
 20 27  1  0  0  0  0
 24 20  2  0  0  0  0
 24 26  1  0  0  0  0
 25 24  1  0  0  0  0
 25 31  2  0  0  0  0
 30 25  1  0  0  0  0
 32 30  1  0  0  0  0
M  END
