
 OpenBabel05282002233D

 27 29  0  0  0  0  0  0  0  0999 V2000
    0.5060    1.6730   -1.8590 O   0  0  0  0  0  1  0  0  0  0  0  0
   -0.4030    1.9130   -1.0080 C   0  0  0  0  0  0  0  0  0  0  0  0
   -1.4350    1.2050   -0.7930 O   0  0  0  0  0  0  0  0  0  0  0  0
   -0.2960    3.1800   -0.2230 C   0  0  0  0  0  0  0  0  0  0  0  0
    0.7790    4.8540    1.1240 C   0  0  0  0  0  0  0  0  0  0  0  0
   -0.3830    5.6040    1.0670 C   0  0  0  0  0  0  0  0  0  0  0  0
   -1.4970    5.2070    0.4330 N   0  0  0  0  0  0  0  0  0  0  0  0
   -1.4240    4.0000   -0.1860 C   0  0  0  0  0  0  0  0  0  0  0  0
    0.8450    3.6080    0.4690 C   0  0  0  0  0  0  0  0  0  0  0  0
    2.0990    2.8240    0.6410 C   0  0  0  0  0  0  0  0  0  0  0  0
   -2.3400    3.6860   -0.6860 H   0  0  0  0  0  0  0  0  0  0  0  0
   -0.4450    6.5710    1.5550 H   0  0  0  0  0  0  0  0  0  0  0  0
    1.6250    5.2340    1.6850 H   0  0  0  0  0  0  0  0  0  0  0  0
    3.5050    0.9320    1.5840 C   0  0  0  0  0  0  0  0  0  0  0  0
    4.7120    1.6660    1.3060 N   0  0  0  0  0  0  0  0  0  0  0  0
    4.5910    2.8570    0.6880 C   0  0  0  0  0  0  0  0  0  0  0  0
    3.2830    3.4340    0.3580 C   0  0  0  0  0  0  0  0  0  0  0  0
    2.1970    1.4910    1.2400 C   0  0  0  0  0  0  0  0  0  0  0  0
    1.2550    0.5900    1.5600 C   0  0  0  0  0  0  0  0  0  0  0  0
    3.3070    4.4220   -0.0910 H   0  0  0  0  0  0  0  0  0  0  0  0
    5.4690    3.4440    0.4400 H   0  0  0  0  0  0  0  0  0  0  0  0
    3.3570   -0.2870    2.1190 C   0  0  0  0  0  0  0  0  0  0  0  0
    1.8970   -0.6430    2.1220 C   0  0  0  0  0  0  0  0  0  0  0  0
    0.1920    0.6900    1.3950 H   0  0  0  0  0  0  0  0  0  0  0  0
    4.1470   -0.9370    2.4570 H   0  0  0  0  0  0  0  0  0  0  0  0
    1.7090   -1.5120    1.4830 H   0  0  0  0  0  0  0  0  0  0  0  0
    1.5390   -0.8460    3.1350 H   0  0  0  0  0  0  0  0  0  0  0  0
  2  1  1  0  0  0  0
  3  2  2  0  0  0  0
  4  2  1  0  0  0  0
  4  8  2  0  0  0  0
  5  9  2  0  0  0  0
  6  5  1  0  0  0  0
  7  6  2  0  0  0  0
  8  7  1  0  0  0  0
  9  4  1  0  0  0  0
 10  9  1  0  0  0  0
 10 17  2  0  0  0  0
 11  8  1  0  0  0  0
 12  6  1  0  0  0  0
 13  5  1  0  0  0  0
 14 18  1  0  0  0  0
 15 14  1  0  0  0  0
 16 15  2  0  0  0  0
 17 16  1  0  0  0  0
 18 10  1  0  0  0  0
 19 18  2  0  0  0  0
 20 17  1  0  0  0  0
 21 16  1  0  0  0  0
 22 14  2  0  0  0  0
 23 22  1  0  0  0  0
 23 19  1  0  0  0  0
 24 19  1  0  0  0  0
 25 22  1  0  0  0  0
 26 23  1  0  0  0  0
 27 23  1  0  0  0  0
M  END
