
 OpenBabel04072008463D

 14 14  0  0  0  0  0  0  0  0999 V2000
    1.2116    0.6995    0.0000 O   0  0  0  0  0  1  0  0  0  0  0  0
    0.0000    1.3990    0.0000 C   0  0  0  0  0  0  0  0  0  0  0  0
   -1.2116    0.6995    0.0000 O   0  0  0  0  0  0  0  0  0  0  0  0
    0.0000    2.7980    0.2798 C   0  0  0  0  0  0  0  0  0  0  0  0
    1.1880    4.8499    0.9325 C   0  0  0  0  0  0  0  0  0  0  0  0
    0.0000    5.5960    0.8394 C   0  0  0  0  0  0  0  0  0  0  0  0
   -1.1880    4.9431    0.4665 C   0  0  0  0  0  0  0  0  0  0  0  0
   -1.1880    3.5441    0.1867 C   0  0  0  0  0  0  0  0  0  0  0  0
    1.1880    3.4509    0.6527 C   0  0  0  0  0  0  0  0  0  0  0  0
    2.3761    2.7048    0.7458 H   0  0  0  0  0  0  0  0  0  0  0  0
   -2.3761    2.8912   -0.1862 H   0  0  0  0  0  0  0  0  0  0  0  0
   -2.3761    5.6892    0.3734 H   0  0  0  0  0  0  0  0  0  0  0  0
    0.0000    6.9950    1.1192 H   0  0  0  0  0  0  0  0  0  0  0  0
    2.3761    5.5028    1.3054 H   0  0  0  0  0  0  0  0  0  0  0  0
  2  1  1  0  0  0  0
  3  2  2  0  0  0  0
  4  2  1  0  0  0  0
  4  8  2  0  0  0  0
  5  9  2  0  0  0  0
  6  5  1  0  0  0  0
  7  6  2  0  0  0  0
  8  7  1  0  0  0  0
  9  4  1  0  0  0  0
 10  9  1  0  0  0  0
 11  8  1  0  0  0  0
 12  7  1  0  0  0  0
 13  6  1  0  0  0  0
 14  5  1  0  0  0  0
M  END
