
 OpenBabel12152003373D

 47 49  0  0  1  0  0  0  0  0999 V2000
    1.5120    0.4980   -0.0140 O   0  0  0  0  0  0  0  0  0  0  0  0
    0.7690    1.6180   -0.1120 C   0  0  0  0  0  0  0  0  0  0  0  0
   -0.3630    1.2000   -0.2590 O   0  0  0  0  0  0  0  0  0  0  0  0
    0.7300    3.0900   -0.0940 C   0  0  1  0  0  0  0  0  0  0  0  0
    2.5030    0.4170    0.0000 H   0  0  0  0  0  0  0  0  0  0  0  0
   -0.4010    3.7870   -0.3200 C   0  0  0  0  0  0  0  0  0  0  0  0
   -0.4600    5.1260   -0.2830 C   0  0  0  0  0  0  0  0  0  0  0  0
    0.5970    5.9340   -0.0300 C   0  0  1  0  0  0  0  0  0  0  0  0
    1.7500    5.2220    0.2010 C   0  0  2  0  0  0  0  0  0  0  0  0
    1.7920    3.8570    0.1730 C   0  0  0  0  0  0  0  0  0  0  0  0
    0.4410    7.3270   -0.0280 C   0  0  2  0  0  0  0  0  0  0  0  0
   -1.4420    5.5170   -0.5110 H   0  0  0  0  0  0  0  0  0  0  0  0
   -1.3340    3.2780   -0.5470 H   0  0  0  0  0  0  0  0  0  0  0  0
    2.7180    3.3380    0.4000 H   0  0  0  0  0  0  0  0  0  0  0  0
    4.1540    5.4490   -0.0580 C   0  0  0  0  0  0  0  0  0  0  0  0
   -0.7680    7.9440   -0.0550 C   0  0  0  0  0  0  0  0  0  0  0  0
   -0.9670    9.2810   -0.0580 C   0  0  0  0  0  0  0  0  0  0  0  0
    0.0630   10.2030   -0.0330 C   0  0  2  0  0  0  0  0  0  0  0  0
    1.2940    9.5750   -0.0260 C   0  0  0  0  0  0  0  0  0  0  0  0
    1.4470    8.2320   -0.0170 C   0  0  0  0  0  0  0  0  0  0  0  0
   -0.1420   11.4860    0.4950 C   0  0  0  0  0  0  0  0  0  0  0  0
   -1.9910    9.6490   -0.0660 H   0  0  0  0  0  0  0  0  0  0  0  0
   -1.6910    7.3800   -0.0430 H   0  0  0  0  0  0  0  0  0  0  0  0
    2.4790    7.9270   -0.0510 H   0  0  0  0  0  0  0  0  0  0  0  0
    2.1860   10.1950   -0.0460 H   0  0  0  0  0  0  0  0  0  0  0  0
   -0.1400   12.6360   -0.2270 C   0  0  0  0  0  0  0  0  0  0  0  0
   -0.4090   14.0810    0.3380 C   0  0  1  0  0  0  0  0  0  0  0  0
    0.0240   12.5840   -1.3010 H   0  0  0  0  0  0  0  0  0  0  0  0
   -0.3250   11.5580    1.5640 H   0  0  0  0  0  0  0  0  0  0  0  0
    0.4540   15.3040   -0.1510 C   0  0  0  0  0  0  0  0  0  0  0  0
   -0.5080   16.5490   -0.3020 C   0  0  1  0  0  0  0  0  0  0  0  0
   -1.7600   16.0360    0.3010 N   0  0  0  0  0  0  0  0  0  0  0  0
   -1.7830   14.5740    0.0980 N   0  0  0  0  0  0  0  0  0  0  0  0
   -0.0550   17.9610    0.2340 C   0  0  0  0  0  0  0  0  0  0  0  0
   -2.0840   14.4550   -0.8680 H   0  0  0  0  0  0  0  0  0  0  0  0
   -1.7770   16.1540    1.3130 H   0  0  0  0  0  0  0  0  0  0  0  0
    0.9210   15.0830   -1.1140 H   0  0  0  0  0  0  0  0  0  0  0  0
   -0.6950   16.6850   -1.3710 H   0  0  0  0  0  0  0  0  0  0  0  0
    1.2480   15.5040    0.5710 H   0  0  0  0  0  0  0  0  0  0  0  0
   -0.2850   14.0330    1.4240 H   0  0  0  0  0  0  0  0  0  0  0  0
    4.4950    4.4950    0.3500 H   0  0  0  0  0  0  0  0  0  0  0  0
    4.9080    6.2110    0.1550 H   0  0  0  0  0  0  0  0  0  0  0  0
    4.0100    5.3690   -1.1390 H   0  0  0  0  0  0  0  0  0  0  0  0
    2.9100    5.8460    0.5740 O   0  0  0  0  0  0  0  0  0  0  0  0
   -0.5800   19.0490   -0.3590 O   0  0  0  0  0  0  0  0  0  0  0  0
    0.6890   18.0760    1.1860 O   0  0  0  0  0  0  0  0  0  0  0  0
   -0.3160   19.9790    0.0000 H   0  0  0  0  0  0  0  0  0  0  0  0
  1  5  1  0  0  0  0
  2  1  1  0  0  0  0
  3  2  2  0  0  0  0
  4  2  1  1  0  0  0
  4 10  5  0  0  0  0
  6  4  5  0  0  0  0
  6  7  5  0  0  0  0
  6 13  1  0  0  0  0
  7 12  1  0  0  0  0
  8  7  5  6  0  0  0
  8 11  1  0  0  0  0
  9  8  5  0  0  0  0
  9 44  1  1  0  0  0
 10  9  5  0  0  0  0
 10 14  1  0  0  0  0
 11 16  5  6  0  0  0
 11 20  5  0  0  0  0
 15 41  1  0  0  0  0
 15 42  1  0  0  0  0
 15 43  1  0  0  0  0
 15 44  1  0  0  0  0
 16 17  5  0  0  0  0
 16 23  1  0  0  0  0
 17 22  1  0  0  0  0
 18 17  5  0  0  0  0
 18 21  1  1  0  0  0
 19 18  5  0  0  0  0
 19 25  1  0  0  0  0
 20 19  5  0  0  0  0
 20 24  1  0  0  0  0
 21 29  1  0  0  0  0
 26 21  2  0  0  0  0
 26 28  1  0  0  0  0
 27 26  1  0  0  0  0
 27 33  1  0  0  0  0
 27 40  1  1  0  0  0
 30 27  1  0  0  0  0
 30 37  1  0  0  0  0
 30 39  1  0  0  0  0
 31 30  1  0  0  0  0
 31 38  1  6  0  0  0
 32 31  1  0  0  0  0
 33 32  1  0  0  0  0
 34 31  1  0  0  0  0
 34 46  2  0  0  0  0
 35 33  1  0  0  0  0
 36 32  1  0  0  0  0
 45 34  1  0  0  0  0
 47 45  1  0  0  0  0
M  END
