31

O          1.24000       -0.26800        0.19500
C          0.11900        0.28700       -0.32600
O         -0.74000       -0.38300       -0.87300
C          0.06700        1.77100       -0.15700
H          1.82200        0.34200        0.68600
C         -1.02800        2.42000        0.31900
C         -0.96500        3.77400        0.48600
C          0.18200        4.45600        0.19400
C          1.23200        3.77900       -0.31000
C          1.18100        2.45300       -0.50000
N          0.29900        5.78800        0.50500
Br        -2.45100        4.77300        1.16900
Br        -2.60400        1.45600        0.78900
H          2.04900        1.95000       -0.91300
H          2.15300        4.31800       -0.55100
N          0.43600        6.62400       -0.41500
C          0.26100        7.97300        0.15800
O          0.94900        9.09700       -0.42000
C         -1.18800        9.87900        0.12000
C         -1.20900        8.36700        0.07400
C          0.61000       11.60800       -0.40900
H         -1.65900        8.02900       -0.86900
H         -1.67800       10.28700       -0.77200
H         -1.72100       10.27100        0.99300
H         -1.79300        7.93000        0.88800
H          0.62500       10.27800        1.21500
C          0.29400       10.23100        0.16800
H          0.57700        7.95400        1.21300
O         -0.32000       12.53300       -0.07800
O          1.61300       11.94500       -1.01500
H          0.03300       13.36900       -0.45200
