47

O          1.51200        0.49800       -0.01400
C          0.76900        1.61800       -0.11200
O         -0.36300        1.20000       -0.25900
C          0.73000        3.09000       -0.09400
H          2.50300        0.41700        0.00000
C         -0.40100        3.78700       -0.32000
C         -0.46000        5.12600       -0.28300
C          0.59700        5.93400       -0.03000
C          1.75000        5.22200        0.20100
C          1.79200        3.85700        0.17300
C          0.44100        7.32700       -0.02800
H         -1.44200        5.51700       -0.51100
H         -1.33400        3.27800       -0.54700
H          2.71800        3.33800        0.40000
C          4.15400        5.44900       -0.05800
C         -0.76800        7.94400       -0.05500
C         -0.96700        9.28100       -0.05800
C          0.06300       10.20300       -0.03300
C          1.29400        9.57500       -0.02600
C          1.44700        8.23200       -0.01700
C         -0.14200       11.48600        0.49500
H         -1.99100        9.64900       -0.06600
H         -1.69100        7.38000       -0.04300
H          2.47900        7.92700       -0.05100
H          2.18600       10.19500       -0.04600
C         -0.14000       12.63600       -0.22700
C         -0.40900       14.08100        0.33800
H          0.02400       12.58400       -1.30100
H         -0.32500       11.55800        1.56400
C          0.45400       15.30400       -0.15100
C         -0.50800       16.54900       -0.30200
N         -1.76000       16.03600        0.30100
N         -1.78300       14.57400        0.09800
C         -0.05500       17.96100        0.23400
H         -2.08400       14.45500       -0.86800
H         -1.77700       16.15400        1.31300
H          0.92100       15.08300       -1.11400
H         -0.69500       16.68500       -1.37100
H          1.24800       15.50400        0.57100
H         -0.28500       14.03300        1.42400
H          4.49500        4.49500        0.35000
H          4.90800        6.21100        0.15500
H          4.01000        5.36900       -1.13900
O          2.91000        5.84600        0.57400
O         -0.58000       19.04900       -0.35900
O          0.68900       18.07600        1.18600
H         -0.31600       19.97900        0.00000
