
 OpenBabel11032017293D

 41 43  0  0  1  0  0  0  0  0999 V2000
    1.4330   -0.3150    0.1080 O   0  0  0  0  0  0  0  0  0  0  0  0
    0.2700    0.3630    0.0030 C   0  0  0  0  0  0  0  0  0  0  0  0
   -0.7880   -0.2360   -0.1420 O   0  0  0  0  0  0  0  0  0  0  0  0
    0.3700    1.8580    0.0420 C   0  0  2  0  0  0  0  0  0  0  0  0
    2.2310    0.2060    0.2840 H   0  0  0  0  0  0  0  0  0  0  0  0
   -0.8040    2.5290    0.0240 C   0  0  0  0  0  0  0  0  0  0  0  0
   -0.8580    3.8830   -0.0300 C   0  0  1  0  0  0  0  0  0  0  0  0
    0.3020    4.6050   -0.0560 C   0  0  1  0  0  0  0  0  0  0  0  0
    1.4710    3.9190   -0.0030 C   0  0  0  0  0  0  0  0  0  0  0  0
    1.5130    2.5730    0.0410 C   0  0  0  0  0  0  0  0  0  0  0  0
    0.4150    6.0510   -0.3110 C   0  0  0  0  0  0  0  0  0  0  0  0
   -2.5910    4.6380   -0.1570 Br  0  0  0  0  0  0  0  0  0  0  0  0
   -1.7370    1.9650    0.0180 H   0  0  0  0  0  0  0  0  0  0  0  0
    2.4940    2.1140    0.0380 H   0  0  0  0  0  0  0  0  0  0  0  0
    2.4170    4.4600   -0.0320 H   0  0  0  0  0  0  0  0  0  0  0  0
   -0.3070    7.0600    0.2030 C   0  0  0  0  0  0  0  0  0  0  0  0
   -0.3960    8.4360   -0.4290 C   0  0  2  0  0  0  0  0  0  0  0  0
   -1.0330    6.8370    0.9830 H   0  0  0  0  0  0  0  0  0  0  0  0
    1.1570    6.3110   -1.0680 H   0  0  0  0  0  0  0  0  0  0  0  0
    0.6400    9.3500   -0.0200 O   0  0  0  0  0  0  0  0  0  0  0  0
   -1.4530   10.4760    0.2170 C   0  0  0  0  0  0  0  0  0  0  0  0
   -1.7470    9.0490   -0.1020 C   0  0  0  0  0  0  0  0  0  0  0  0
    0.5480   11.8720   -0.2590 C   0  0  2  0  0  0  0  0  0  0  0  0
   -2.4330    8.9660   -0.9540 H   0  0  0  0  0  0  0  0  0  0  0  0
   -1.7840   11.0810   -0.6360 H   0  0  0  0  0  0  0  0  0  0  0  0
   -2.0050   10.8330    1.0920 H   0  0  0  0  0  0  0  0  0  0  0  0
   -2.2550    8.5840    0.7490 H   0  0  0  0  0  0  0  0  0  0  0  0
    0.2740   10.6400    1.5220 H   0  0  0  0  0  0  0  0  0  0  0  0
    0.0560   10.5840    0.4490 C   0  0  2  0  0  0  0  0  0  0  0  0
   -0.3060    8.3340   -1.5190 H   0  0  0  0  0  0  0  0  0  0  0  0
    1.8650   12.5130    0.1270 C   0  0  0  0  0  0  0  0  0  0  0  0
    1.4490   13.9030    0.2610 N   0  0  0  0  0  0  0  0  0  0  0  0
    0.1060   14.0390    0.3140 N   0  0  0  0  0  0  0  0  0  0  0  0
   -0.4340   12.9430    0.0730 N   0  0  0  0  0  0  0  0  0  0  0  0
    2.2270   15.0160    0.1280 C   0  0  0  0  0  0  0  0  0  0  0  0
    2.6380   12.4250   -0.6450 H   0  0  0  0  0  0  0  0  0  0  0  0
    2.2670   12.1710    1.0850 H   0  0  0  0  0  0  0  0  0  0  0  0
    0.5410   11.7150   -1.3460 H   0  0  0  0  0  0  0  0  0  0  0  0
    1.5220   16.1820    0.1900 O   0  0  0  0  0  0  0  0  0  0  0  0
    3.4310   15.0540   -0.0810 O   0  0  0  0  0  0  0  0  0  0  0  0
    2.1750   16.8790    0.0070 H   0  0  0  0  0  0  0  0  0  0  0  0
  1  5  1  0  0  0  0
  2  1  1  0  0  0  0
  3  2  2  0  0  0  0
  4  2  1  6  0  0  0
  4 10  5  0  0  0  0
  6  4  5  0  0  0  0
  6  7  5  0  0  0  0
  6 13  1  0  0  0  0
  7 12  1  6  0  0  0
  8  7  5  0  0  0  0
  8 11  1  6  0  0  0
  9  8  5  0  0  0  0
  9 15  1  0  0  0  0
 10  9  5  0  0  0  0
 10 14  1  0  0  0  0
 11 19  1  0  0  0  0
 16 11  2  0  0  0  0
 16 18  1  0  0  0  0
 17 16  1  0  0  0  0
 17 22  1  0  0  0  0
 17 30  1  6  0  0  0
 20 17  1  0  0  0  0
 21 29  1  0  0  0  0
 21 26  1  0  0  0  0
 22 21  1  0  0  0  0
 22 27  1  0  0  0  0
 23 29  1  0  0  0  0
 23 34  1  0  0  0  0
 23 38  1  6  0  0  0
 24 22  1  0  0  0  0
 25 21  1  0  0  0  0
 29 20  1  0  0  0  0
 29 28  1  1  0  0  0
 31 23  1  0  0  0  0
 31 36  1  0  0  0  0
 31 37  1  0  0  0  0
 32 31  1  0  0  0  0
 33 32  1  0  0  0  0
 34 33  2  0  0  0  0
 35 32  1  0  0  0  0
 35 40  2  0  0  0  0
 39 35  1  0  0  0  0
 41 39  1  0  0  0  0
M  END
