
 OpenBabel01202116503D

 40 41  0  0  1  0  0  0  0  0999 V2000
    2.2130    1.7750    0.0200 O   0  0  0  0  0  0  0  0  0  0  0  0
    2.3100    3.4140    0.0140 C   0  0  0  0  0  0  0  0  0  0  0  0
    1.1040    3.5210    0.0800 O   0  0  0  0  0  0  0  0  0  0  0  0
    2.5160    5.1700    0.0050 C   0  0  2  0  0  0  0  0  0  0  0  0
    2.5030    0.4170    0.0000 H   0  0  0  0  0  0  0  0  0  0  0  0
    1.5440    6.2200    0.0480 C   0  0  0  0  0  0  0  0  0  0  0  0
    1.5970    7.6950    0.0310 C   0  0  1  0  0  0  0  0  0  0  0  0
    2.6950    8.6110   -0.0250 C   0  0  1  0  0  0  0  0  0  0  0  0
    3.6830    7.5750   -0.0770 C   0  0  2  0  0  0  0  0  0  0  0  0
    3.5970    6.1000   -0.0550 C   0  0  0  0  0  0  0  0  0  0  0  0
    2.7260   10.6000   -0.1820 C   0  0  2  0  0  0  0  0  0  0  0  0
   -0.9000    7.7470    0.0610 C   0  0  0  0  0  0  0  0  0  0  0  0
    0.5430    5.8120    0.0960 H   0  0  0  0  0  0  0  0  0  0  0  0
    4.5610    5.6030   -0.1070 H   0  0  0  0  0  0  0  0  0  0  0  0
    5.0930    8.1140   -0.1680 C   0  0  0  0  0  0  0  0  0  0  0  0
    5.1390    9.1670    0.1200 H   0  0  0  0  0  0  0  0  0  0  0  0
    5.7630    7.5630    0.4940 H   0  0  0  0  0  0  0  0  0  0  0  0
    5.4630    8.0260   -1.1920 H   0  0  0  0  0  0  0  0  0  0  0  0
   -1.0220    7.1410   -0.8420 H   0  0  0  0  0  0  0  0  0  0  0  0
   -1.6800    8.5130    0.0800 H   0  0  0  0  0  0  0  0  0  0  0  0
   -1.0060    7.1190    0.9510 H   0  0  0  0  0  0  0  0  0  0  0  0
    0.4050    8.3960    0.0560 O   0  0  0  0  0  0  0  0  0  0  0  0
    3.7190   12.1520   -0.0530 C   0  0  0  0  0  0  0  0  0  0  0  0
    3.0690   13.8870   -0.1860 C   0  0  1  0  0  0  0  0  0  0  0  0
    1.8500   13.1540    0.4620 N   0  0  0  0  0  0  0  0  0  0  0  0
    1.6090   11.5900    0.2850 N   0  0  0  0  0  0  0  0  0  0  0  0
    3.6130   15.7680    0.1330 C   0  0  0  0  0  0  0  0  0  0  0  0
    0.7490   11.4810   -0.2520 H   0  0  0  0  0  0  0  0  0  0  0  0
    1.8360   13.2890    1.4710 H   0  0  0  0  0  0  0  0  0  0  0  0
    4.1950   12.0990    0.9310 H   0  0  0  0  0  0  0  0  0  0  0  0
    2.8100   13.9400   -1.2470 H   0  0  0  0  0  0  0  0  0  0  0  0
    4.5400   12.0620   -0.7660 H   0  0  0  0  0  0  0  0  0  0  0  0
    2.5890   10.6100   -1.2660 H   0  0  0  0  0  0  0  0  0  0  0  0
    3.3930   17.3410   -0.1500 C   0  0  0  0  0  0  0  0  0  0  0  0
    4.0580   19.0860    0.1800 C   0  0  0  0  0  0  0  0  0  0  0  0
    2.5210   17.4840   -0.7880 H   0  0  0  0  0  0  0  0  0  0  0  0
    4.4860   15.6640    0.7710 H   0  0  0  0  0  0  0  0  0  0  0  0
    3.7810   20.6600   -0.1380 O   0  0  0  0  0  0  0  0  0  0  0  0
    5.0570   18.9830    0.8610 O   0  0  0  0  0  0  0  0  0  0  0  0
    4.1410   22.0100    0.0000 H   0  0  0  0  0  0  0  0  0  0  0  0
  1  5  1  0  0  0  0
  2  1  1  0  0  0  0
  3  2  2  0  0  0  0
  4  2  1  6  0  0  0
  4 10  5  0  0  0  0
  6  4  5  0  0  0  0
  6  7  5  0  0  0  0
  6 13  1  0  0  0  0
  7 22  1  6  0  0  0
  8  7  5  0  0  0  0
  8 11  1  6  0  0  0
  9  8  5  0  0  0  0
  9 15  1  1  0  0  0
 10  9  5  0  0  0  0
 10 14  1  0  0  0  0
 11 26  1  0  0  0  0
 11 33  1  6  0  0  0
 12 19  1  0  0  0  0
 12 20  1  0  0  0  0
 12 21  1  0  0  0  0
 12 22  1  0  0  0  0
 15 16  1  0  0  0  0
 15 17  1  0  0  0  0
 15 18  1  0  0  0  0
 23 11  1  0  0  0  0
 23 30  1  0  0  0  0
 23 32  1  0  0  0  0
 24 23  1  0  0  0  0
 24 31  1  6  0  0  0
 25 24  1  0  0  0  0
 26 25  1  0  0  0  0
 27 24  1  0  0  0  0
 27 37  1  0  0  0  0
 28 26  1  0  0  0  0
 29 25  1  0  0  0  0
 34 27  2  0  0  0  0
 34 36  1  0  0  0  0
 35 34  1  0  0  0  0
 35 39  2  0  0  0  0
 38 35  1  0  0  0  0
 40 38  1  0  0  0  0
M  END
