41

O          1.43300       -0.31500        0.10800
C          0.27000        0.36300        0.00300
O         -0.78800       -0.23600       -0.14200
C          0.37000        1.85800        0.04200
H          2.23100        0.20600        0.28400
C         -0.80400        2.52900        0.02400
C         -0.85800        3.88300       -0.03000
C          0.30200        4.60500       -0.05600
C          1.47100        3.91900       -0.00300
C          1.51300        2.57300        0.04100
C          0.41500        6.05100       -0.31100
Br        -2.59100        4.63800       -0.15700
H         -1.73700        1.96500        0.01800
H          2.49400        2.11400        0.03800
H          2.41700        4.46000       -0.03200
C         -0.30700        7.06000        0.20300
C         -0.39600        8.43600       -0.42900
H         -1.03300        6.83700        0.98300
H          1.15700        6.31100       -1.06800
O          0.64000        9.35000       -0.02000
C         -1.45300       10.47600        0.21700
C         -1.74700        9.04900       -0.10200
C          0.54800       11.87200       -0.25900
H         -2.43300        8.96600       -0.95400
H         -1.78400       11.08100       -0.63600
H         -2.00500       10.83300        1.09200
H         -2.25500        8.58400        0.74900
H          0.27400       10.64000        1.52200
C          0.05600       10.58400        0.44900
H         -0.30600        8.33400       -1.51900
C          1.86500       12.51300        0.12700
N          1.44900       13.90300        0.26100
N          0.10600       14.03900        0.31400
N         -0.43400       12.94300        0.07300
C          2.22700       15.01600        0.12800
H          2.63800       12.42500       -0.64500
H          2.26700       12.17100        1.08500
H          0.54100       11.71500       -1.34600
O          1.52200       16.18200        0.19000
O          3.43100       15.05400       -0.08100
H          2.17500       16.87900        0.00700
