
 OpenBabel11032017293D

 40 42  0  0  1  0  0  0  0  0999 V2000
    1.6210   -0.4990   -0.1020 O   0  0  0  0  0  0  0  0  0  0  0  0
    0.3970    0.0700   -0.1440 C   0  0  0  0  0  0  0  0  0  0  0  0
   -0.6140   -0.6130   -0.2100 O   0  0  0  0  0  0  0  0  0  0  0  0
    0.3780    1.5620   -0.0630 C   0  0  1  0  0  0  0  0  0  0  0  0
    2.3710    0.0950    0.0510 H   0  0  0  0  0  0  0  0  0  0  0  0
   -0.8410    2.1320    0.0720 C   0  0  0  0  0  0  0  0  0  0  0  0
   -0.9630    3.4680    0.2100 C   0  0  2  0  0  0  0  0  0  0  0  0
    0.1350    4.2590    0.2140 C   0  0  2  0  0  0  0  0  0  0  0  0
    1.3460    3.6800    0.0390 C   0  0  0  0  0  0  0  0  0  0  0  0
    1.4700    2.3550   -0.1070 C   0  0  0  0  0  0  0  0  0  0  0  0
    0.0270    5.7490    0.4110 C   0  0  1  0  0  0  0  0  0  0  0  0
   -2.2790    3.9970    0.3600 N   0  0  0  0  0  0  0  0  0  0  0  0
   -1.7340    1.5120    0.0860 H   0  0  0  0  0  0  0  0  0  0  0  0
    2.4750    1.9770   -0.2460 H   0  0  0  0  0  0  0  0  0  0  0  0
    2.2560    4.2720    0.0220 H   0  0  0  0  0  0  0  0  0  0  0  0
   -2.3860    4.9790    0.0950 H   0  0  0  0  0  0  0  0  0  0  0  0
   -3.0440    3.4450   -0.0150 H   0  0  0  0  0  0  0  0  0  0  0  0
    1.1980    6.6280    0.0190 C   0  0  0  0  0  0  0  0  0  0  0  0
    0.4450    7.8100   -0.2770 N   0  0  0  0  0  0  0  0  0  0  0  0
   -0.8030    7.4950   -0.7390 N   0  0  0  0  0  0  0  0  0  0  0  0
   -1.0390    6.3080   -0.4450 N   0  0  0  0  0  0  0  0  0  0  0  0
    0.8390    9.1130   -0.1780 C   0  0  0  0  0  0  0  0  0  0  0  0
    1.9230    6.7490    0.8300 H   0  0  0  0  0  0  0  0  0  0  0  0
    1.7120    6.2910   -0.8900 H   0  0  0  0  0  0  0  0  0  0  0  0
   -0.2360    5.9420    1.4610 H   0  0  0  0  0  0  0  0  0  0  0  0
   -0.0840   10.0760   -0.1320 C   0  0  0  0  0  0  0  0  0  0  0  0
    0.0720   11.5180   -0.3650 C   0  0  2  0  0  0  0  0  0  0  0  0
   -1.1260    9.7710   -0.0190 H   0  0  0  0  0  0  0  0  0  0  0  0
    1.9100    9.2800   -0.2420 H   0  0  0  0  0  0  0  0  0  0  0  0
    1.3380   12.2150    0.0370 C   0  0  0  0  0  0  0  0  0  0  0  0
    0.7630   13.4940    0.3550 N   0  0  0  0  0  0  0  0  0  0  0  0
   -0.5650   13.4070    0.6560 N   0  0  0  0  0  0  0  0  0  0  0  0
   -0.9640   12.2470    0.3920 N   0  0  0  0  0  0  0  0  0  0  0  0
    1.3390   14.7020    0.1020 C   0  0  0  0  0  0  0  0  0  0  0  0
    2.0840   12.2640   -0.7620 H   0  0  0  0  0  0  0  0  0  0  0  0
    1.7930   11.8070    0.9460 H   0  0  0  0  0  0  0  0  0  0  0  0
   -0.1270   11.6840   -1.4320 H   0  0  0  0  0  0  0  0  0  0  0  0
    0.4990   15.7440    0.2740 O   0  0  0  0  0  0  0  0  0  0  0  0
    2.4790   14.8930   -0.2930 O   0  0  0  0  0  0  0  0  0  0  0  0
    1.0170   16.5170   -0.0170 H   0  0  0  0  0  0  0  0  0  0  0  0
  1  5  1  0  0  0  0
  2  1  1  0  0  0  0
  3  2  2  0  0  0  0
  4  2  1  1  0  0  0
  4 10  5  0  0  0  0
  6  4  5  0  0  0  0
  6  7  5  0  0  0  0
  6 13  1  0  0  0  0
  7 12  1  1  0  0  0
  8  7  5  0  0  0  0
  8  9  5  1  0  0  0
  8 11  1  0  0  0  0
  9 15  1  0  0  0  0
 10  9  5  0  0  0  0
 10 14  1  0  0  0  0
 11 21  1  0  0  0  0
 11 25  1  1  0  0  0
 12 16  1  0  0  0  0
 12 17  1  0  0  0  0
 18 11  1  0  0  0  0
 18 23  1  0  0  0  0
 18 24  1  0  0  0  0
 19 18  1  0  0  0  0
 20 19  1  0  0  0  0
 21 20  2  0  0  0  0
 22 19  1  0  0  0  0
 22 29  1  0  0  0  0
 26 22  2  0  0  0  0
 26 28  1  0  0  0  0
 27 26  1  0  0  0  0
 27 33  1  0  0  0  0
 27 37  1  6  0  0  0
 30 27  1  0  0  0  0
 30 35  1  0  0  0  0
 30 36  1  0  0  0  0
 31 30  1  0  0  0  0
 32 31  1  0  0  0  0
 33 32  2  0  0  0  0
 34 31  1  0  0  0  0
 34 39  2  0  0  0  0
 38 34  1  0  0  0  0
 40 38  1  0  0  0  0
M  END
