38

O          0.80100       -0.05300        0.34500
C         -0.36600        0.54700        0.67000
O         -1.32000       -0.12700        1.03200
C         -0.39100        2.04600        0.50700
H          1.53900        0.58100        0.36400
C         -1.54000        2.67200        0.12100
C         -1.53400        4.03000        0.02700
C         -0.45800        4.77500        0.36600
C          0.65600        4.12200        0.74200
C          0.72200        2.77700        0.78600
C         -0.46800        6.29300        0.34500
H         -2.43200        4.54500       -0.29700
C         -2.79200        1.86400       -0.25700
C          2.97500        2.49800        0.18900
H          1.53100        4.68900        1.04700
C          0.80800        6.98500       -0.09100
N          0.24400        8.18800       -0.63000
N         -1.07400        8.01400       -0.97000
N         -1.45400        6.87200       -0.60300
N          0.72900        9.39900       -0.24200
H          1.49700        7.18600        0.73500
H          1.32800        6.46800       -0.90400
H         -0.74800        6.63900        1.34900
C         -4.04500        2.60500       -0.71600
H         -4.83000        1.88000       -0.95800
H         -3.86000        3.20600       -1.61100
H         -4.43100        3.25300        0.07800
H         -2.52500        1.15600       -1.05300
H         -3.10500        1.28800        0.62100
N         -0.21000       10.17600        0.02100
C          0.16000       11.48400        0.08600
H          2.65700        2.27100       -0.83500
H          3.83700        1.87300        0.42800
H          3.27200        3.54700        0.27400
O          1.92800        2.16000        1.11300
O         -0.93800       12.26500        0.10700
O          1.27500       11.99000        0.08500
H         -0.56800       13.16600        0.05500
