28

O          1.17700        0.25500       -0.00000
C          0.04400        0.98800       -0.02800
O         -1.01500        0.37600       -0.02600
C          0.19000        2.51400       -0.03000
H          1.96900        0.67900       -0.34500
C         -1.00200        3.19400       -0.01900
C         -1.03400        4.54200       -0.02500
C          0.09600        5.25900       -0.03700
C          1.26900        4.60300       -0.05000
C          1.35400        3.24800       -0.04500
C          0.07500        6.68700       -0.03300
H         -1.98600        5.06300       -0.01400
O         -2.22700        2.54500       -0.00200
C          2.78700        2.75900       -0.05000
H          2.17900        5.20500       -0.05700
C          0.15100        7.88700       -0.02000
C          0.38300        9.28600       -0.00500
H         -2.99700        3.13300       -0.05200
C         -0.61100       10.18700        0.00200
C         -0.25600       11.61000        0.02200
H         -1.66100        9.92300       -0.00400
H          1.41900        9.61800        0.00500
H          2.96100        1.89300        0.58900
H          3.47300        3.51400        0.35700
H          3.11300        2.55500       -1.07800
O         -1.36200       12.36900        0.01500
O          0.86000       12.09400        0.04100
H         -1.01600       13.28700        0.02500
