
 OpenBabel11042013043D

 29 29  0  0  1  0  0  0  0  0999 V2000
    1.6630    0.2380    0.1210 O   0  0  0  0  0  0  0  0  0  0  0  0
    0.4780    0.8730    0.1780 C   0  0  0  0  0  0  0  0  0  0  0  0
   -0.5220    0.1750    0.2770 O   0  0  0  0  0  0  0  0  0  0  0  0
    0.4720    2.4110    0.1370 C   0  0  1  0  0  0  0  0  0  0  0  0
    2.4590    0.7960    0.1000 H   0  0  0  0  0  0  0  0  0  0  0  0
   -0.7370    3.0890    0.1120 C   0  0  1  0  0  0  0  0  0  0  0  0
   -0.7370    4.4680    0.1230 C   0  0  2  0  0  0  0  0  0  0  0  0
    0.4200    5.1930    0.1300 C   0  0  1  0  0  0  0  0  0  0  0  0
    1.5760    4.4920    0.1290 C   0  0  0  0  0  0  0  0  0  0  0  0
    1.6150    3.1460    0.1330 C   0  0  2  0  0  0  0  0  0  0  0  0
    0.5750    6.6760    0.0850 C   0  0  0  0  0  0  0  0  0  0  0  0
   -1.9790    5.1860    0.1340 C   0  0  0  0  0  0  0  0  0  0  0  0
   -2.0550    2.2670    0.0260 C   0  0  0  0  0  0  0  0  0  0  0  0
    3.2380    2.4990    0.1080 Cl  0  0  0  0  0  0  0  0  0  0  0  0
    2.5240    5.0330    0.1200 H   0  0  0  0  0  0  0  0  0  0  0  0
   -0.3430    7.6570    0.1450 C   0  0  0  0  0  0  0  0  0  0  0  0
   -0.0010    9.0840    0.0210 C   0  0  0  0  0  0  0  0  0  0  0  0
   -1.4020    7.5160    0.2680 H   0  0  0  0  0  0  0  0  0  0  0  0
    1.6070    7.0190   -0.0330 H   0  0  0  0  0  0  0  0  0  0  0  0
   -2.9780    5.7770    0.1330 N   0  0  0  0  0  0  0  0  0  0  0  0
   -3.3900    2.8560   -0.4210 C   0  0  0  0  0  0  0  0  0  0  0  0
   -3.2680    3.5060   -1.2920 H   0  0  0  0  0  0  0  0  0  0  0  0
   -4.0730    2.0560   -0.7240 H   0  0  0  0  0  0  0  0  0  0  0  0
   -3.8830    3.3860    0.3990 H   0  0  0  0  0  0  0  0  0  0  0  0
   -1.8980    1.5030   -0.7430 H   0  0  0  0  0  0  0  0  0  0  0  0
   -2.2210    1.7760    0.9950 H   0  0  0  0  0  0  0  0  0  0  0  0
   -1.1320    9.8130    0.0360 O   0  0  0  0  0  0  0  0  0  0  0  0
    1.1010    9.5750   -0.1060 O   0  0  0  0  0  0  0  0  0  0  0  0
   -0.8530   10.7460   -0.0650 H   0  0  0  0  0  0  0  0  0  0  0  0
  1  5  1  0  0  0  0
  2  1  1  0  0  0  0
  3  2  2  0  0  0  0
  4  2  1  1  0  0  0
  4 10  5  0  0  0  0
  6  4  5  0  0  0  0
  6  7  5  0  0  0  0
  6 13  1  6  0  0  0
  7 12  1  1  0  0  0
  8  7  5  0  0  0  0
  8 11  1  6  0  0  0
  9  8  5  0  0  0  0
  9 15  1  0  0  0  0
 10  9  5  0  0  0  0
 10 14  1  6  0  0  0
 11 19  1  0  0  0  0
 12 20  3  0  0  0  0
 13 25  1  0  0  0  0
 13 26  1  0  0  0  0
 16 11  2  0  0  0  0
 16 18  1  0  0  0  0
 17 16  1  0  0  0  0
 17 28  2  0  0  0  0
 21 22  1  0  0  0  0
 21 23  1  0  0  0  0
 21 24  1  0  0  0  0
 21 13  1  0  0  0  0
 27 17  1  0  0  0  0
 29 27  1  0  0  0  0
M  END
