
 OpenBabel11042013043D

 36 37  0  0  1  0  0  0  0  0999 V2000
    1.2530   -0.6620   -0.0040 O   0  0  0  0  0  0  0  0  0  0  0  0
    0.1130    0.0600    0.0770 C   0  0  0  0  0  0  0  0  0  0  0  0
   -0.9810   -0.4850    0.1060 O   0  0  0  0  0  0  0  0  0  0  0  0
    0.2890    1.5400    0.1180 C   0  0  2  0  0  0  0  0  0  0  0  0
    2.0730   -0.1320   -0.0310 H   0  0  0  0  0  0  0  0  0  0  0  0
   -0.8250    2.2870    0.2560 C   0  0  0  0  0  0  0  0  0  0  0  0
   -0.7410    3.6280    0.2680 C   0  0  0  0  0  0  0  0  0  0  0  0
    0.4450    4.2770    0.1120 C   0  0  1  0  0  0  0  0  0  0  0  0
    1.5560    3.5090    0.0070 C   0  0  0  0  0  0  0  0  0  0  0  0
    1.4760    2.1680    0.0160 C   0  0  2  0  0  0  0  0  0  0  0  0
    0.4940    5.7580    0.0490 C   0  0  2  0  0  0  0  0  0  0  0  0
   -1.6740    4.1770    0.3910 H   0  0  0  0  0  0  0  0  0  0  0  0
   -1.8040    1.8200    0.3520 H   0  0  0  0  0  0  0  0  0  0  0  0
    2.6200    1.4560   -0.0980 F   0  0  0  0  0  0  0  0  0  0  0  0
    2.5400    3.9550   -0.1050 H   0  0  0  0  0  0  0  0  0  0  0  0
   -0.5570    6.4400   -0.4570 C   0  0  0  0  0  0  0  0  0  0  0  0
   -0.6300    7.7860   -0.4690 C   0  0  1  0  0  0  0  0  0  0  0  0
    0.4360    8.5160   -0.0450 C   0  0  1  0  0  0  0  0  0  0  0  0
    1.5260    7.8430    0.4000 C   0  0  0  0  0  0  0  0  0  0  0  0
    1.5470    6.4960    0.4710 C   0  0  0  0  0  0  0  0  0  0  0  0
    0.5040    9.9810   -0.0780 C   0  0  0  0  0  0  0  0  0  0  0  0
   -2.9370    8.0460   -0.1250 C   0  0  0  0  0  0  0  0  0  0  0  0
   -1.4080    5.9040   -0.8680 H   0  0  0  0  0  0  0  0  0  0  0  0
    2.4370    6.0250    0.8790 H   0  0  0  0  0  0  0  0  0  0  0  0
    2.4080    8.3870    0.7360 H   0  0  0  0  0  0  0  0  0  0  0  0
   -0.5310   10.8260    0.0320 C   0  0  0  0  0  0  0  0  0  0  0  0
   -0.3380   12.2770   -0.0090 C   0  0  0  0  0  0  0  0  0  0  0  0
   -1.5520   10.4980    0.1560 H   0  0  0  0  0  0  0  0  0  0  0  0
    1.5060   10.4040   -0.1860 H   0  0  0  0  0  0  0  0  0  0  0  0
   -3.7720    7.8070   -0.7890 H   0  0  0  0  0  0  0  0  0  0  0  0
   -2.7800    7.1960    0.5510 H   0  0  0  0  0  0  0  0  0  0  0  0
   -3.2080    8.9140    0.4820 H   0  0  0  0  0  0  0  0  0  0  0  0
   -1.7990    8.3780   -0.9340 O   0  0  0  0  0  0  0  0  0  0  0  0
   -1.5280   12.8960    0.0380 O   0  0  0  0  0  0  0  0  0  0  0  0
    0.7130   12.8840   -0.0720 O   0  0  0  0  0  0  0  0  0  0  0  0
   -1.3000   13.8480   -0.0020 H   0  0  0  0  0  0  0  0  0  0  0  0
  1  5  1  0  0  0  0
  2  1  1  0  0  0  0
  3  2  2  0  0  0  0
  4  2  1  6  0  0  0
  4 10  5  0  0  0  0
  6  4  5  0  0  0  0
  6  7  5  0  0  0  0
  6 13  1  0  0  0  0
  7 12  1  0  0  0  0
  8  7  5  6  0  0  0
  8 11  1  0  0  0  0
  9  8  5  0  0  0  0
  9 15  1  0  0  0  0
 10  9  5  0  0  0  0
 10 14  1  6  0  0  0
 11 16  5  6  0  0  0
 11 20  5  0  0  0  0
 16 17  5  0  0  0  0
 16 23  1  0  0  0  0
 17 33  1  6  0  0  0
 18 17  5  0  0  0  0
 18 21  1  6  0  0  0
 19 18  5  0  0  0  0
 19 25  1  0  0  0  0
 20 19  5  0  0  0  0
 20 24  1  0  0  0  0
 21 29  1  0  0  0  0
 22 30  1  0  0  0  0
 22 31  1  0  0  0  0
 22 32  1  0  0  0  0
 22 33  1  0  0  0  0
 26 21  2  0  0  0  0
 26 28  1  0  0  0  0
 27 26  1  0  0  0  0
 27 35  2  0  0  0  0
 34 27  1  0  0  0  0
 36 34  1  0  0  0  0
M  END
