40

O          1.63400       -0.95600        0.20500
C          0.41800       -0.47300       -0.13700
O         -0.51600       -1.20300       -0.43000
C          0.32400        1.01200       -0.09400
H          2.23500       -0.29400        0.59100
C         -0.84800        1.56300        0.27700
C         -0.99400        2.90500        0.34300
C          0.03200        3.73900       -0.00600
C          1.19500        3.14700       -0.39800
C          1.35100        1.81100       -0.43400
C         -0.02900        5.23000       -0.03500
N         -2.26200        3.35700        0.82300
H         -1.67900        0.91400        0.54900
H          2.30400        1.40800       -0.76600
H          2.04500        3.74800       -0.70900
H         -3.03900        3.01700        0.25900
H         -2.35600        4.35500        0.97200
C         -1.11900        5.91100       -0.46600
C         -1.15000        7.25600       -0.48000
C         -0.07600        7.99500       -0.11300
C          1.03300        7.32200        0.26600
C          1.04500        5.97800        0.32400
C         -0.19400        9.51200       -0.13300
H         -2.06900        7.75000       -0.79400
H         -2.00900        5.39100       -0.80800
H          1.96200        5.50700        0.66900
H          1.94500        7.83600        0.54900
C          0.93000       10.36500        0.41900
N          0.20200       11.31400        1.23700
N         -1.09300       10.91700        1.42300
N         -1.33300        9.90900        0.72000
C          0.31600       12.71600        0.87600
H          1.51000       10.83600       -0.38400
H          1.63000        9.83000        1.06600
H         -0.40200        9.83200       -1.16500
C          0.27200       13.86700        0.54500
C          0.05800       15.21500        0.11900
O         -1.22900       15.48000       -0.16100
O          0.95300       16.03500        0.00400
H         -1.22300       16.41800       -0.43200
