
 OpenBabel11042013043D

 40 42  0  0  1  0  0  0  0  0999 V2000
    1.6340   -0.9560    0.2050 O   0  0  0  0  0  0  0  0  0  0  0  0
    0.4180   -0.4730   -0.1370 C   0  0  0  0  0  0  0  0  0  0  0  0
   -0.5160   -1.2030   -0.4300 O   0  0  0  0  0  0  0  0  0  0  0  0
    0.3240    1.0120   -0.0940 C   0  0  2  0  0  0  0  0  0  0  0  0
    2.2350   -0.2940    0.5910 H   0  0  0  0  0  0  0  0  0  0  0  0
   -0.8480    1.5630    0.2770 C   0  0  0  0  0  0  0  0  0  0  0  0
   -0.9940    2.9050    0.3430 C   0  0  2  0  0  0  0  0  0  0  0  0
    0.0320    3.7390   -0.0060 C   0  0  1  0  0  0  0  0  0  0  0  0
    1.1950    3.1470   -0.3980 C   0  0  0  0  0  0  0  0  0  0  0  0
    1.3510    1.8110   -0.4340 C   0  0  0  0  0  0  0  0  0  0  0  0
   -0.0290    5.2300   -0.0350 C   0  0  2  0  0  0  0  0  0  0  0  0
   -2.2620    3.3570    0.8230 N   0  0  0  0  0  0  0  0  0  0  0  0
   -1.6790    0.9140    0.5490 H   0  0  0  0  0  0  0  0  0  0  0  0
    2.3040    1.4080   -0.7660 H   0  0  0  0  0  0  0  0  0  0  0  0
    2.0450    3.7480   -0.7090 H   0  0  0  0  0  0  0  0  0  0  0  0
   -3.0390    3.0170    0.2590 H   0  0  0  0  0  0  0  0  0  0  0  0
   -2.3560    4.3550    0.9720 H   0  0  0  0  0  0  0  0  0  0  0  0
   -1.1190    5.9110   -0.4660 C   0  0  0  0  0  0  0  0  0  0  0  0
   -1.1500    7.2560   -0.4800 C   0  0  0  0  0  0  0  0  0  0  0  0
   -0.0760    7.9950   -0.1130 C   0  0  2  0  0  0  0  0  0  0  0  0
    1.0330    7.3220    0.2660 C   0  0  0  0  0  0  0  0  0  0  0  0
    1.0450    5.9780    0.3240 C   0  0  0  0  0  0  0  0  0  0  0  0
   -0.1940    9.5120   -0.1330 C   0  0  2  0  0  0  0  0  0  0  0  0
   -2.0690    7.7500   -0.7940 H   0  0  0  0  0  0  0  0  0  0  0  0
   -2.0090    5.3910   -0.8080 H   0  0  0  0  0  0  0  0  0  0  0  0
    1.9620    5.5070    0.6690 H   0  0  0  0  0  0  0  0  0  0  0  0
    1.9450    7.8360    0.5490 H   0  0  0  0  0  0  0  0  0  0  0  0
    0.9300   10.3650    0.4190 C   0  0  0  0  0  0  0  0  0  0  0  0
    0.2020   11.3140    1.2370 N   0  0  0  0  0  0  0  0  0  0  0  0
   -1.0930   10.9170    1.4230 N   0  0  0  0  0  0  0  0  0  0  0  0
   -1.3330    9.9090    0.7200 N   0  0  0  0  0  0  0  0  0  0  0  0
    0.3160   12.7160    0.8760 C   0  0  0  0  0  0  0  0  0  0  0  0
    1.5100   10.8360   -0.3840 H   0  0  0  0  0  0  0  0  0  0  0  0
    1.6300    9.8300    1.0660 H   0  0  0  0  0  0  0  0  0  0  0  0
   -0.4020    9.8320   -1.1650 H   0  0  0  0  0  0  0  0  0  0  0  0
    0.2720   13.8670    0.5450 C   0  0  0  0  0  0  0  0  0  0  0  0
    0.0580   15.2150    0.1190 C   0  0  0  0  0  0  0  0  0  0  0  0
   -1.2290   15.4800   -0.1610 O   0  0  0  0  0  0  0  0  0  0  0  0
    0.9530   16.0350    0.0040 O   0  0  0  0  0  0  0  0  0  0  0  0
   -1.2230   16.4180   -0.4320 H   0  0  0  0  0  0  0  0  0  0  0  0
  1  5  1  0  0  0  0
  2  1  1  0  0  0  0
  3  2  2  0  0  0  0
  4  2  1  6  0  0  0
  4 10  5  0  0  0  0
  6  4  5  0  0  0  0
  6  7  5  0  0  0  0
  6 13  1  0  0  0  0
  7 12  1  1  0  0  0
  8  7  5  0  0  0  0
  8  9  5  6  0  0  0
  8 11  1  0  0  0  0
  9 15  1  0  0  0  0
 10  9  5  0  0  0  0
 10 14  1  0  0  0  0
 11 18  5  6  0  0  0
 11 22  5  0  0  0  0
 12 16  1  0  0  0  0
 12 17  1  0  0  0  0
 18 19  5  0  0  0  0
 18 25  1  0  0  0  0
 19 24  1  0  0  0  0
 20 19  5  1  0  0  0
 20 23  1  0  0  0  0
 21 20  5  0  0  0  0
 21 27  1  0  0  0  0
 22 21  5  0  0  0  0
 22 26  1  0  0  0  0
 23 31  1  0  0  0  0
 23 35  1  6  0  0  0
 28 23  1  0  0  0  0
 28 33  1  0  0  0  0
 28 34  1  0  0  0  0
 29 28  1  0  0  0  0
 30 29  1  0  0  0  0
 31 30  2  0  0  0  0
 32 29  1  0  0  0  0
 36 32  3  0  0  0  0
 37 36  1  0  0  0  0
 37 39  2  0  0  0  0
 38 37  1  0  0  0  0
 40 38  1  0  0  0  0
M  END
