43

O          1.49000       -0.17700       -0.29300
C          0.31700        0.49000       -0.19300
O         -0.71000       -0.10000        0.11100
C          0.42100        1.97700       -0.33100
H          2.23300        0.34600       -0.64200
C         -0.67700        2.68500       -0.68500
C         -0.64700        4.02900       -0.57900
C          0.40200        4.66800       -0.02600
C          1.53100        3.96100        0.20900
C          1.54000        2.62500        0.06600
C          0.25000        6.04700        0.56100
H         -1.56100        4.57500       -0.82500
C         -2.87900        2.31000       -0.08600
H          2.44100        2.10400        0.37200
H          2.41000        4.45600        0.63300
C          1.06800        7.19900        0.03700
N          0.10400        8.26300        0.20800
N         -1.17200        7.77000        0.26400
N         -1.14500        6.54100        0.45300
C          0.25500        9.59600       -0.32300
H          1.34000        7.11100       -1.02000
H          1.95200        7.38200        0.65400
H          0.43500        5.95000        1.63900
C          1.60800       10.26500       -0.16000
C          1.28700       11.63100        0.43900
N         -0.17600       11.73200        0.53000
N         -0.65800       10.40400        0.48000
N          1.91700       12.73700       -0.31200
H         -1.61600       10.28100        0.15000
H         -0.48000       12.28900       -0.27300
H          2.10800       10.34000       -1.13300
H          1.69700       11.66900        1.45500
H          2.27100        9.71100        0.51400
H         -0.03500        9.57600       -1.37500
N          1.07600       13.52600       -0.80800
C          1.35100       14.82800       -0.49700
H         -3.47400        3.18100       -0.38600
H         -2.47200        2.46900        0.91700
H         -3.53900        1.43500       -0.04400
O         -1.85600        2.06400       -1.06400
O          0.21400       15.53400       -0.33900
O          2.43300       15.36800       -0.31300
H          0.53500       16.39700       -0.01000
