
 OpenBabel11042013043D

 41 43  0  0  1  0  0  0  0  0999 V2000
    1.2670   -0.6860   -0.1120 O   0  0  0  0  0  0  0  0  0  0  0  0
    0.2800    0.0080    0.4900 C   0  0  0  0  0  0  0  0  0  0  0  0
   -0.6610   -0.5750    1.0140 O   0  0  0  0  0  0  0  0  0  0  0  0
    0.3240    1.5000    0.3570 C   0  0  1  0  0  0  0  0  0  0  0  0
    2.0210   -0.2280   -0.5270 H   0  0  0  0  0  0  0  0  0  0  0  0
   -0.8950    2.0640    0.2310 C   0  0  0  0  0  0  0  0  0  0  0  0
   -1.0220    3.3870    0.0280 C   0  0  0  0  0  0  0  0  0  0  0  0
    0.0580    4.1990   -0.0690 C   0  0  1  0  0  0  0  0  0  0  0  0
    1.2850    3.6340    0.1290 C   0  0  1  0  0  0  0  0  0  0  0  0
    1.4210    2.2970    0.3540 C   0  0  2  0  0  0  0  0  0  0  0  0
   -0.1190    5.6480   -0.5400 C   0  0  2  0  0  0  0  0  0  0  0  0
   -2.0320    3.7670   -0.1030 H   0  0  0  0  0  0  0  0  0  0  0  0
   -1.8010    1.4560    0.2620 H   0  0  0  0  0  0  0  0  0  0  0  0
    2.7160    1.7230    0.5400 C   0  0  0  0  0  0  0  0  0  0  0  0
    2.7240    4.6330    0.0220 Cl  0  0  0  0  0  0  0  0  0  0  0  0
    3.7220    1.1560    0.6050 N   0  0  0  0  0  0  0  0  0  0  0  0
    0.4510    6.6680    0.3040 O   0  0  0  0  0  0  0  0  0  0  0  0
   -1.2580    7.6630   -1.0070 C   0  0  0  0  0  0  0  0  0  0  0  0
   -1.5260    6.1940   -0.7210 C   0  0  0  0  0  0  0  0  0  0  0  0
    0.3320    9.1550    0.5350 C   0  0  1  0  0  0  0  0  0  0  0  0
   -2.0910    5.7060   -1.5180 H   0  0  0  0  0  0  0  0  0  0  0  0
   -1.2010    7.8370   -2.0850 H   0  0  0  0  0  0  0  0  0  0  0  0
   -2.0870    8.2660   -0.6430 H   0  0  0  0  0  0  0  0  0  0  0  0
   -2.0940    6.1170    0.2160 H   0  0  0  0  0  0  0  0  0  0  0  0
    0.8450    7.9990   -1.1950 H   0  0  0  0  0  0  0  0  0  0  0  0
    0.1160    7.9240   -0.3740 C   0  0  1  0  0  0  0  0  0  0  0  0
    0.3920    5.6990   -1.5140 H   0  0  0  0  0  0  0  0  0  0  0  0
    1.1840   10.1230   -0.1400 O   0  0  0  0  0  0  0  0  0  0  0  0
   -0.5870   11.3900    0.6030 C   0  0  0  0  0  0  0  0  0  0  0  0
   -0.8700    9.9630    1.0310 C   0  0  0  0  0  0  0  0  0  0  0  0
    1.4580   12.6130   -0.3190 C   0  0  0  0  0  0  0  0  0  0  0  0
   -1.8490    9.6510    0.6720 H   0  0  0  0  0  0  0  0  0  0  0  0
   -0.9500   12.1300    1.3250 H   0  0  0  0  0  0  0  0  0  0  0  0
   -1.0740   11.5900   -0.3590 H   0  0  0  0  0  0  0  0  0  0  0  0
   -0.9200    9.8980    2.1240 H   0  0  0  0  0  0  0  0  0  0  0  0
    1.3990   11.4250    1.4350 H   0  0  0  0  0  0  0  0  0  0  0  0
    0.9170   11.4020    0.4490 C   0  0  2  0  0  0  0  0  0  0  0  0
    0.9080    8.8300    1.4110 H   0  0  0  0  0  0  0  0  0  0  0  0
    0.6460   13.6920   -0.2730 O   0  0  0  0  0  0  0  0  0  0  0  0
    2.5400   12.7020   -0.8770 O   0  0  0  0  0  0  0  0  0  0  0  0
    1.1380   14.3770   -0.7730 H   0  0  0  0  0  0  0  0  0  0  0  0
  1  5  1  0  0  0  0
  2  1  1  0  0  0  0
  3  2  2  0  0  0  0
  4  2  1  1  0  0  0
  4 10  5  0  0  0  0
  6  4  5  0  0  0  0
  6  7  5  0  0  0  0
  6 13  1  0  0  0  0
  7 12  1  0  0  0  0
  8  7  5  6  0  0  0
  8 11  1  0  0  0  0
  9  8  5  0  0  0  0
  9 15  1  6  0  0  0
 10  9  5  0  0  0  0
 10 14  1  6  0  0  0
 11 19  1  0  0  0  0
 11 27  1  6  0  0  0
 14 16  3  0  0  0  0
 17 11  1  0  0  0  0
 18 26  1  0  0  0  0
 18 23  1  0  0  0  0
 19 18  1  0  0  0  0
 19 24  1  0  0  0  0
 20 26  1  0  0  0  0
 20 30  1  0  0  0  0
 20 38  1  1  0  0  0
 21 19  1  0  0  0  0
 22 18  1  0  0  0  0
 26 17  1  0  0  0  0
 26 25  1  6  0  0  0
 28 20  1  0  0  0  0
 29 37  1  0  0  0  0
 29 34  1  0  0  0  0
 30 29  1  0  0  0  0
 30 35  1  0  0  0  0
 31 37  1  0  0  0  0
 31 40  2  0  0  0  0
 32 30  1  0  0  0  0
 33 29  1  0  0  0  0
 37 28  1  0  0  0  0
 37 36  1  1  0  0  0
 39 31  1  0  0  0  0
 41 39  1  0  0  0  0
M  END
