41

O          1.26700       -0.68600       -0.11200
C          0.28000        0.00800        0.49000
O         -0.66100       -0.57500        1.01400
C          0.32400        1.50000        0.35700
H          2.02100       -0.22800       -0.52700
C         -0.89500        2.06400        0.23100
C         -1.02200        3.38700        0.02800
C          0.05800        4.19900       -0.06900
C          1.28500        3.63400        0.12900
C          1.42100        2.29700        0.35400
C         -0.11900        5.64800       -0.54000
H         -2.03200        3.76700       -0.10300
H         -1.80100        1.45600        0.26200
C          2.71600        1.72300        0.54000
Cl         2.72400        4.63300        0.02200
N          3.72200        1.15600        0.60500
O          0.45100        6.66800        0.30400
C         -1.25800        7.66300       -1.00700
C         -1.52600        6.19400       -0.72100
C          0.33200        9.15500        0.53500
H         -2.09100        5.70600       -1.51800
H         -1.20100        7.83700       -2.08500
H         -2.08700        8.26600       -0.64300
H         -2.09400        6.11700        0.21600
H          0.84500        7.99900       -1.19500
C          0.11600        7.92400       -0.37400
H          0.39200        5.69900       -1.51400
O          1.18400       10.12300       -0.14000
C         -0.58700       11.39000        0.60300
C         -0.87000        9.96300        1.03100
C          1.45800       12.61300       -0.31900
H         -1.84900        9.65100        0.67200
H         -0.95000       12.13000        1.32500
H         -1.07400       11.59000       -0.35900
H         -0.92000        9.89800        2.12400
H          1.39900       11.42500        1.43500
C          0.91700       11.40200        0.44900
H          0.90800        8.83000        1.41100
O          0.64600       13.69200       -0.27300
O          2.54000       12.70200       -0.87700
H          1.13800       14.37700       -0.77300
