28

O          0.93400        0.06500        0.00000
C         -0.18500        0.82200       -0.00000
O         -1.29400        0.30200       -0.00000
C          0.01600        2.30800       -0.00000
H          1.79800        0.50900        0.00000
C         -1.08700        3.09400       -0.00000
C         -0.98900        4.44500       -0.00000
C          0.22600        5.04500        0.00000
C          1.31700        4.24300       -0.00000
C          1.22500        2.90400       -0.00000
C          0.47000        6.48100        0.00000
H         -1.90800        5.02700        0.00000
H         -2.07900        2.64100        0.00000
H          2.16600        2.37200       -0.00000
F          2.55900        4.77500       -0.00000
C         -0.34600        7.54400       -0.00000
N          0.21500        8.79600       -0.00000
H         -1.42800        7.46000        0.00000
H          1.52800        6.74300        0.00000
N         -0.57000        9.75900       -0.00000
C          0.05300       10.98200       -0.00000
C         -0.66400       12.11100        0.00000
C         -0.03500       13.43200        0.00000
H         -1.74400       12.07800        0.00000
H          1.14200       11.00900       -0.00000
O         -0.99300       14.37400        0.00000
O          1.15000       13.69800       -0.00000
H         -0.51400       15.22600       -0.00000
