
 OpenBabel02032115563D

 33 34  0  0  1  0  0  0  0  0999 V2000
    1.7850   -0.2410    0.0760 O   0  0  0  0  0  0  0  0  0  0  0  0
    0.6550    0.4180    0.0500 C   0  0  0  0  0  0  0  0  0  0  0  0
   -0.3940   -0.1940    0.0060 O   0  0  0  0  0  0  0  0  0  0  0  0
    0.6450    1.8430    0.0030 C   0  0  2  0  0  0  0  0  0  0  0  0
    2.5030    0.4170    0.0000 H   0  0  0  0  0  0  0  0  0  0  0  0
   -0.4730    2.5180   -0.2790 C   0  0  0  0  0  0  0  0  0  0  0  0
   -0.4810    3.8500   -0.3780 C   0  0  1  0  0  0  0  0  0  0  0  0
    0.6560    4.5680   -0.1640 C   0  0  1  0  0  0  0  0  0  0  0  0
    1.7810    3.8690    0.1120 C   0  0  1  0  0  0  0  0  0  0  0  0
    1.7740    2.5280    0.1990 C   0  0  0  0  0  0  0  0  0  0  0  0
    0.7780    5.8710   -0.2670 N   0  0  0  0  0  0  0  0  0  0  0  0
   -2.7690    4.5220    0.0610 C   0  0  0  0  0  0  0  0  0  0  0  0
   -1.3960    1.9800   -0.4840 H   0  0  0  0  0  0  0  0  0  0  0  0
    2.6870    1.9640    0.4230 H   0  0  0  0  0  0  0  0  0  0  0  0
    2.8270    4.2260    0.2910 C   0  0  0  0  0  0  0  0  0  0  0  0
   -0.2710    6.5130    0.0640 N   0  0  0  0  0  0  0  0  0  0  0  0
   -0.3410    7.7930   -0.6650 C   0  0  2  0  0  0  0  0  0  0  0  0
    0.5540    8.8840   -0.0510 C   0  0  0  0  0  0  0  0  0  0  0  0
   -0.2910    9.8990    0.5830 N   0  0  0  0  0  0  0  0  0  0  0  0
   -0.9230    9.1480    1.0930 N   0  0  0  0  0  0  0  0  0  0  0  0
   -1.0040    8.2220    0.1150 N   0  0  0  0  0  0  0  0  0  0  0  0
   -0.2860   11.1940    0.1990 C   0  0  0  0  0  0  0  0  0  0  0  0
    1.1420    9.3390   -0.8540 H   0  0  0  0  0  0  0  0  0  0  0  0
    1.2830    8.4700    0.6660 H   0  0  0  0  0  0  0  0  0  0  0  0
   -1.3700    8.0930   -0.9190 H   0  0  0  0  0  0  0  0  0  0  0  0
    3.8230    4.6430   -0.0890 N   0  0  0  0  0  0  0  0  0  0  0  0
   -3.2270    3.5400    0.1980 H   0  0  0  0  0  0  0  0  0  0  0  0
   -3.4970    5.2040   -0.3840 H   0  0  0  0  0  0  0  0  0  0  0  0
   -2.4410    4.9280    1.0230 H   0  0  0  0  0  0  0  0  0  0  0  0
   -1.6420    4.4210   -0.8460 O   0  0  0  0  0  0  0  0  0  0  0  0
   -1.3680   11.8420    0.5160 O   0  0  0  0  0  0  0  0  0  0  0  0
    0.5550   11.6800   -0.5310 O   0  0  0  0  0  0  0  0  0  0  0  0
   -1.3190   12.6560    0.0000 H   0  0  0  0  0  0  0  0  0  0  0  0
  1  5  1  0  0  0  0
  2  1  1  0  0  0  0
  3  2  2  0  0  0  0
  4  2  1  6  0  0  0
  4 10  5  0  0  0  0
  6  4  5  0  0  0  0
  6  7  5  0  0  0  0
  6 13  1  0  0  0  0
  7 30  1  6  0  0  0
  8  7  5  0  0  0  0
  8 11  1  6  0  0  0
  9  8  5  0  0  0  0
  9 15  1  6  0  0  0
 10  9  5  0  0  0  0
 10 14  1  0  0  0  0
 12 27  1  0  0  0  0
 12 28  1  0  0  0  0
 12 29  1  0  0  0  0
 12 30  1  0  0  0  0
 15 26  3  0  0  0  0
 16 11  2  0  0  0  0
 17 16  1  0  0  0  0
 17 21  1  0  0  0  0
 17 25  1  6  0  0  0
 18 17  1  0  0  0  0
 18 23  1  0  0  0  0
 18 24  1  0  0  0  0
 19 18  1  0  0  0  0
 20 19  1  0  0  0  0
 21 20  2  0  0  0  0
 22 19  1  0  0  0  0
 22 32  2  0  0  0  0
 31 22  1  0  0  0  0
 33 31  1  0  0  0  0
M  END
