
 OpenBabel04212111313D

 60 63  0  0  1  0  0  0  0  0999 V2000
    1.2100    0.2310   -0.0240 O   0  0  0  0  0  0  0  0  0  0  0  0
    0.1920    1.0990   -0.0170 C   0  0  0  0  0  0  0  0  0  0  0  0
   -0.9640    0.7020    0.0310 O   0  0  0  0  0  0  0  0  0  0  0  0
    0.4610    2.4720   -0.0370 N   0  0  0  0  0  0  0  0  0  0  0  0
    2.1130    0.5780   -0.0160 H   0  0  0  0  0  0  0  0  0  0  0  0
   -0.4640    3.2410    0.2490 N   0  0  0  0  0  0  0  0  0  0  0  0
   -0.2470    4.5680    0.1600 C   0  0  0  0  0  0  0  0  0  0  0  0
    0.0600    5.6830    0.0520 C   0  0  0  0  0  0  0  0  0  0  0  0
    0.1210    7.0000   -0.0280 C   0  0  0  0  0  0  0  0  0  0  0  0
    0.2420    8.1280   -0.1100 C   0  0  0  0  0  0  0  0  0  0  0  0
    0.0130    9.3970   -0.1180 C   0  0  0  0  0  0  0  0  0  0  0  0
   -0.1060   10.5280   -0.1340 C   0  0  0  0  0  0  0  0  0  0  0  0
   -0.2490   11.8830   -0.1520 C   0  0  1  0  0  0  0  0  0  0  0  0
    1.0630   12.5560    0.2910 C   0  0  0  0  0  0  0  0  0  0  0  0
    0.5990   13.8460    0.0030 N   0  0  0  0  0  0  0  0  0  0  0  0
   -0.7390   13.9680   -0.1580 N   0  0  0  0  0  0  0  0  0  0  0  0
   -1.2700   12.8760   -0.2560 N   0  0  0  0  0  0  0  0  0  0  0  0
    1.3150   14.9350    0.0450 C   0  0  0  0  0  0  0  0  0  0  0  0
    2.1650   12.7120    0.0810 H   0  0  0  0  0  0  0  0  0  0  0  0
    1.8110   11.9550   -0.2960 H   0  0  0  0  0  0  0  0  0  0  0  0
   -1.1770   11.4980    0.3220 H   0  0  0  0  0  0  0  0  0  0  0  0
    1.6190   16.0470    0.0410 C   0  0  0  0  0  0  0  0  0  0  0  0
    1.3370   17.4130    0.0410 C   0  0  1  0  0  0  0  0  0  0  0  0
    2.0720   18.5620   -0.2970 O   0  0  0  0  0  0  0  0  0  0  0  0
   -0.1870   18.9690    0.2710 C   0  0  0  0  0  0  0  0  0  0  0  0
   -0.1360   17.5590   -0.2690 C   0  0  0  0  0  0  0  0  0  0  0  0
    1.6310   21.3910    0.1940 C   0  0  1  0  0  0  0  0  0  0  0  0
   -0.7870   16.6780    0.0890 H   0  0  0  0  0  0  0  0  0  0  0  0
   -0.2700   19.4860   -0.6470 H   0  0  0  0  0  0  0  0  0  0  0  0
   -1.2810   19.1710    0.1530 H   0  0  0  0  0  0  0  0  0  0  0  0
   -0.9940   16.9140    0.1510 H   0  0  0  0  0  0  0  0  0  0  0  0
    2.2800   19.6650    0.3060 H   0  0  0  0  0  0  0  0  0  0  0  0
    1.2620   19.6970   -0.0780 C   0  0  2  0  0  0  0  0  0  0  0  0
    2.3400   16.9770    0.0790 H   0  0  0  0  0  0  0  0  0  0  0  0
    3.0620   22.1550   -0.1740 C   0  0  0  0  0  0  0  0  0  0  0  0
    2.8980   23.9140    0.0330 C   0  0  2  0  0  0  0  0  0  0  0  0
    1.4340   23.8480    0.0560 N   0  0  0  0  0  0  0  0  0  0  0  0
    0.7760   22.5970   -0.0970 N   0  0  0  0  0  0  0  0  0  0  0  0
    3.0980   25.6670   -0.0510 C   0  0  0  0  0  0  0  0  0  0  0  0
   -0.2750   22.7820    0.0560 H   0  0  0  0  0  0  0  0  0  0  0  0
    0.8090   24.6750   -0.0020 H   0  0  0  0  0  0  0  0  0  0  0  0
    4.1360   21.8060    0.0590 H   0  0  0  0  0  0  0  0  0  0  0  0
    4.0090   23.9630   -0.0040 H   0  0  0  0  0  0  0  0  0  0  0  0
    3.7770   21.2630    0.0360 H   0  0  0  0  0  0  0  0  0  0  0  0
    0.6110   21.1360    0.0590 H   0  0  0  0  0  0  0  0  0  0  0  0
    3.1140   27.0400   -0.0670 C   0  0  0  0  0  0  0  0  0  0  0  0
    3.1320   28.8050   -0.0730 C   0  0  1  0  0  0  0  0  0  0  0  0
    2.0450   29.4970    0.0130 C   0  0  0  0  0  0  0  0  0  0  0  0
    2.0390   30.7780   -0.0380 C   0  0  0  0  0  0  0  0  0  0  0  0
    3.0970   31.4280    0.0260 C   0  0  1  0  0  0  0  0  0  0  0  0
    4.1810   30.8090   -0.0540 C   0  0  0  0  0  0  0  0  0  0  0  0
    4.2090   29.5200    0.0030 C   0  0  0  0  0  0  0  0  0  0  0  0
    3.0360   33.0290   -0.0020 C   0  0  0  0  0  0  0  0  0  0  0  0
    1.0840   31.3620    0.0040 H   0  0  0  0  0  0  0  0  0  0  0  0
    1.0450   29.0410   -0.0080 H   0  0  0  0  0  0  0  0  0  0  0  0
    5.2240   29.0790   -0.0070 H   0  0  0  0  0  0  0  0  0  0  0  0
    5.1320   31.4190    0.0060 H   0  0  0  0  0  0  0  0  0  0  0  0
    1.8420   33.6970    0.0000 O   0  0  0  0  0  0  0  0  0  0  0  0
    4.0620   33.7040   -0.0020 O   0  0  0  0  0  0  0  0  0  0  0  0
    1.7530   34.6720   -0.0000 H   0  0  0  0  0  0  0  0  0  0  0  0
  1  5  1  0  0  0  0
  2  1  1  0  0  0  0
  3  2  2  0  0  0  0
  4  2  1  0  0  0  0
  6  4  2  0  0  0  0
  7  6  1  0  0  0  0
  8  7  3  0  0  0  0
  9  8  1  0  0  0  0
 10  9  3  0  0  0  0
 11 10  1  0  0  0  0
 12 11  3  0  0  0  0
 13 12  1  0  0  0  0
 13 17  1  0  0  0  0
 13 21  1  1  0  0  0
 14 13  1  0  0  0  0
 14 19  1  0  0  0  0
 14 20  1  0  0  0  0
 15 14  1  0  0  0  0
 16 15  1  0  0  0  0
 17 16  2  0  0  0  0
 18 15  1  0  0  0  0
 22 18  3  0  0  0  0
 23 22  1  0  0  0  0
 23 26  1  0  0  0  0
 23 34  1  1  0  0  0
 24 23  1  0  0  0  0
 25 33  1  0  0  0  0
 25 30  1  0  0  0  0
 26 25  1  0  0  0  0
 26 31  1  0  0  0  0
 27 33  1  0  0  0  0
 27 38  1  0  0  0  0
 27 45  1  1  0  0  0
 28 26  1  0  0  0  0
 29 25  1  0  0  0  0
 33 24  1  0  0  0  0
 33 32  1  1  0  0  0
 35 27  1  0  0  0  0
 35 42  1  0  0  0  0
 35 44  1  0  0  0  0
 36 35  1  0  0  0  0
 36 43  1  1  0  0  0
 37 36  1  0  0  0  0
 38 37  1  0  0  0  0
 39 36  1  0  0  0  0
 40 38  1  0  0  0  0
 41 37  1  0  0  0  0
 46 39  3  0  0  0  0
 47 46  1  1  0  0  0
 47 52  5  0  0  0  0
 48 47  5  0  0  0  0
 48 49  5  0  0  0  0
 48 55  1  0  0  0  0
 49 54  1  0  0  0  0
 50 49  5  0  0  0  0
 50 53  1  6  0  0  0
 51 50  5  0  0  0  0
 51 57  1  0  0  0  0
 52 51  5  0  0  0  0
 52 56  1  0  0  0  0
 53 59  2  0  0  0  0
 58 53  1  0  0  0  0
 60 58  1  0  0  0  0
M  END
