
 OpenBabel11042013043D

 36 37  0  0  1  0  0  0  0  0999 V2000
    0.9240    0.0070    0.1460 O   0  0  0  0  0  0  0  0  0  0  0  0
   -0.1460    0.8260    0.0900 C   0  0  0  0  0  0  0  0  0  0  0  0
   -1.2810    0.3740    0.1410 O   0  0  0  0  0  0  0  0  0  0  0  0
    0.1500    2.2930   -0.0450 C   0  0  2  0  0  0  0  0  0  0  0  0
    1.8020    0.4200    0.1180 H   0  0  0  0  0  0  0  0  0  0  0  0
   -0.9230    3.1180   -0.0860 C   0  0  0  0  0  0  0  0  0  0  0  0
   -0.7670    4.4540   -0.2320 C   0  0  0  0  0  0  0  0  0  0  0  0
    0.4650    4.9980   -0.3370 C   0  0  1  0  0  0  0  0  0  0  0  0
    1.5290    4.1710   -0.2880 C   0  0  0  0  0  0  0  0  0  0  0  0
    1.3810    2.8350   -0.1440 C   0  0  0  0  0  0  0  0  0  0  0  0
    0.7090    6.4250   -0.5490 C   0  0  0  0  0  0  0  0  0  0  0  0
   -1.6620    5.0730   -0.2780 H   0  0  0  0  0  0  0  0  0  0  0  0
   -1.9350    2.7170   -0.0130 H   0  0  0  0  0  0  0  0  0  0  0  0
    2.2910    2.2520   -0.1200 H   0  0  0  0  0  0  0  0  0  0  0  0
    2.5380    4.5720   -0.3680 H   0  0  0  0  0  0  0  0  0  0  0  0
   -0.0060    7.4310   -0.0200 C   0  0  0  0  0  0  0  0  0  0  0  0
    0.2680    8.8760   -0.0940 C   0  0  1  0  0  0  0  0  0  0  0  0
   -0.8720    7.1810    0.5910 H   0  0  0  0  0  0  0  0  0  0  0  0
    1.5870    6.6580   -1.1470 H   0  0  0  0  0  0  0  0  0  0  0  0
   -0.7610    9.7240   -0.3890 C   0  0  1  0  0  0  0  0  0  0  0  0
   -0.5860   11.0610   -0.3260 C   0  0  0  0  0  0  0  0  0  0  0  0
    0.6020   11.5880    0.0170 C   0  0  2  0  0  0  0  0  0  0  0  0
    1.6410   10.7680    0.2580 C   0  0  0  0  0  0  0  0  0  0  0  0
    1.4770    9.4280    0.2140 C   0  0  1  0  0  0  0  0  0  0  0  0
    0.8160   13.0580    0.1440 C   0  0  0  0  0  0  0  0  0  0  0  0
   -1.4270   11.7070   -0.5590 H   0  0  0  0  0  0  0  0  0  0  0  0
   -2.9170    8.8330    0.0910 C   0  0  0  0  0  0  0  0  0  0  0  0
    2.8940    8.4830    0.6030 Cl  0  0  0  0  0  0  0  0  0  0  0  0
    2.6140   11.1880    0.5060 H   0  0  0  0  0  0  0  0  0  0  0  0
   -2.5740    8.9660    1.1210 H   0  0  0  0  0  0  0  0  0  0  0  0
   -3.1240    7.7740   -0.0930 H   0  0  0  0  0  0  0  0  0  0  0  0
   -3.8500    9.3860   -0.0520 H   0  0  0  0  0  0  0  0  0  0  0  0
   -1.9810    9.2740   -0.8860 O   0  0  0  0  0  0  0  0  0  0  0  0
   -0.2810   13.7810   -0.1430 O   0  0  0  0  0  0  0  0  0  0  0  0
    1.8480   13.6050    0.4930 O   0  0  0  0  0  0  0  0  0  0  0  0
    0.0010   14.7080    0.0030 H   0  0  0  0  0  0  0  0  0  0  0  0
  1  5  1  0  0  0  0
  2  1  1  0  0  0  0
  3  2  2  0  0  0  0
  4  2  1  6  0  0  0
  4 10  5  0  0  0  0
  6  4  5  0  0  0  0
  6  7  5  0  0  0  0
  6 13  1  0  0  0  0
  7 12  1  0  0  0  0
  8  7  5  0  0  0  0
  8 11  1  6  0  0  0
  9  8  5  0  0  0  0
  9 15  1  0  0  0  0
 10  9  5  0  0  0  0
 10 14  1  0  0  0  0
 11 19  1  0  0  0  0
 16 11  2  0  0  0  0
 16 18  1  0  0  0  0
 17 16  1  1  0  0  0
 17 24  5  0  0  0  0
 20 17  5  0  0  0  0
 20 21  5  0  0  0  0
 20 33  1  6  0  0  0
 21 26  1  0  0  0  0
 22 21  5  0  0  0  0
 22 25  1  1  0  0  0
 23 22  5  0  0  0  0
 23 29  1  0  0  0  0
 24 23  5  0  0  0  0
 24 28  1  1  0  0  0
 25 35  2  0  0  0  0
 27 30  1  0  0  0  0
 27 31  1  0  0  0  0
 27 32  1  0  0  0  0
 27 33  1  0  0  0  0
 34 25  1  0  0  0  0
 36 34  1  0  0  0  0
M  END
