
 OpenBabel11042013043D

 34 35  0  0  1  0  0  0  0  0999 V2000
    0.9450    0.1110    0.0030 O   0  0  0  0  0  0  0  0  0  0  0  0
   -0.2030    0.8140    0.1430 C   0  0  0  0  0  0  0  0  0  0  0  0
   -1.2570    0.2290    0.3570 O   0  0  0  0  0  0  0  0  0  0  0  0
   -0.0790    2.3120    0.0260 C   0  0  1  0  0  0  0  0  0  0  0  0
    1.7150    0.5930   -0.3370 H   0  0  0  0  0  0  0  0  0  0  0  0
   -1.1870    3.0750   -0.1450 C   0  0  1  0  0  0  0  0  0  0  0  0
   -1.0690    4.4110   -0.2720 C   0  0  0  0  0  0  0  0  0  0  0  0
    0.1290    5.0400   -0.1850 C   0  0  1  0  0  0  0  0  0  0  0  0
    1.2270    4.2720    0.0350 C   0  0  2  0  0  0  0  0  0  0  0  0
    1.1170    2.9320    0.1430 C   0  0  0  0  0  0  0  0  0  0  0  0
    0.2210    6.4780   -0.4290 C   0  0  0  0  0  0  0  0  0  0  0  0
   -1.9660    4.9970   -0.4590 H   0  0  0  0  0  0  0  0  0  0  0  0
   -2.5070    2.5360   -0.2270 N   0  0  0  0  0  0  0  0  0  0  0  0
    2.0260    2.3740    0.3350 H   0  0  0  0  0  0  0  0  0  0  0  0
    2.5250    4.8510    0.1790 N   0  0  0  0  0  0  0  0  0  0  0  0
   -2.5960    1.5680    0.0980 H   0  0  0  0  0  0  0  0  0  0  0  0
   -3.2570    3.1170    0.1340 H   0  0  0  0  0  0  0  0  0  0  0  0
    3.2110    4.3040    0.6890 H   0  0  0  0  0  0  0  0  0  0  0  0
    2.5330    5.8200    0.4870 H   0  0  0  0  0  0  0  0  0  0  0  0
   -0.6550    7.4070   -0.0130 C   0  0  0  0  0  0  0  0  0  0  0  0
   -0.5770    8.8530   -0.3960 C   0  0  2  0  0  0  0  0  0  0  0  0
   -1.5140    7.1150    0.5880 H   0  0  0  0  0  0  0  0  0  0  0  0
    1.0640    6.7810   -1.0530 H   0  0  0  0  0  0  0  0  0  0  0  0
    0.6680    9.6090   -0.0010 C   0  0  0  0  0  0  0  0  0  0  0  0
    0.0790   10.8980    0.2470 N   0  0  0  0  0  0  0  0  0  0  0  0
   -1.2550   10.8110    0.5040 N   0  0  0  0  0  0  0  0  0  0  0  0
   -1.6410    9.6300    0.2870 N   0  0  0  0  0  0  0  0  0  0  0  0
    0.7110   12.0950    0.0680 C   0  0  0  0  0  0  0  0  0  0  0  0
    1.4330    9.6490   -0.7810 H   0  0  0  0  0  0  0  0  0  0  0  0
    1.1150    9.2540    0.9340 H   0  0  0  0  0  0  0  0  0  0  0  0
   -0.7550    8.9480   -1.4760 H   0  0  0  0  0  0  0  0  0  0  0  0
   -0.0960   13.1660    0.2130 O   0  0  0  0  0  0  0  0  0  0  0  0
    1.8830   12.2560   -0.2420 O   0  0  0  0  0  0  0  0  0  0  0  0
    0.4770   13.9270   -0.0050 H   0  0  0  0  0  0  0  0  0  0  0  0
  1  5  1  0  0  0  0
  2  1  1  0  0  0  0
  3  2  2  0  0  0  0
  4  2  1  1  0  0  0
  4 10  5  0  0  0  0
  6  4  5  0  0  0  0
  6  7  5  0  0  0  0
  6 13  1  6  0  0  0
  7 12  1  0  0  0  0
  8  7  5  0  0  0  0
  8 11  1  6  0  0  0
  9  8  5  0  0  0  0
  9 15  1  1  0  0  0
 10  9  5  0  0  0  0
 10 14  1  0  0  0  0
 11 23  1  0  0  0  0
 13 16  1  0  0  0  0
 13 17  1  0  0  0  0
 15 18  1  0  0  0  0
 15 19  1  0  0  0  0
 20 11  2  0  0  0  0
 20 22  1  0  0  0  0
 21 20  1  0  0  0  0
 21 27  1  0  0  0  0
 21 31  1  6  0  0  0
 24 21  1  0  0  0  0
 24 29  1  0  0  0  0
 24 30  1  0  0  0  0
 25 24  1  0  0  0  0
 26 25  1  0  0  0  0
 27 26  2  0  0  0  0
 28 25  1  0  0  0  0
 28 33  2  0  0  0  0
 32 28  1  0  0  0  0
 34 32  1  0  0  0  0
M  END
