41

O          1.08700        0.54500       -0.31500
C         -0.05500        1.27200       -0.35200
O         -1.12700        0.69700       -0.22800
C          0.10800        2.77000       -0.46400
H          1.92200        1.00000       -0.49700
C         -0.98100        3.54200       -0.69500
C         -0.85000        4.88700       -0.69900
C          0.31500        5.53800       -0.43100
C          1.41400        4.74800       -0.23400
C          1.29100        3.39400       -0.26500
C          0.28300        7.07100       -0.17200
H         -1.76200        5.44900       -0.87000
C         -3.12400        3.16000        0.18800
H          2.18300        2.81700       -0.05500
C          2.79600        5.27900        0.10300
H         -3.82600        3.96700       -0.04300
H         -2.61000        3.37900        1.13200
H         -3.69400        2.23500        0.31900
O         -2.23400        2.98800       -0.91900
C          2.87000        5.78400        1.53700
H          2.48100        5.03700        2.23600
H          3.90500        6.00700        1.80900
H          2.29400        6.70000        1.68100
H          3.54900        4.48500       -0.00600
H          3.10800        6.03600       -0.62400
C          1.31400        8.12400       -0.63500
C          0.70400        9.37700        0.00100
N         -0.75300        9.16600       -0.08200
N         -0.94200        7.80200       -0.57600
C          1.06400       10.71400       -0.47900
H         -1.76000        7.38600       -0.12900
H         -1.16900        9.84900       -0.72100
H          2.32100        7.97000       -0.24100
H          0.97000        9.35900        1.06800
H          1.38200        8.19200       -1.72900
H          0.27800        7.09700        0.93000
C          1.19000       11.90900       -0.58900
C          1.22400       13.35100       -0.52100
O          0.01500       13.93000       -0.49800
O          2.26100       13.98400       -0.41400
H          0.20900       14.88000       -0.36300
