
 OpenBabel11042013043D

 41 42  0  0  1  0  0  0  0  0999 V2000
    1.0870    0.5450   -0.3150 O   0  0  0  0  0  0  0  0  0  0  0  0
   -0.0550    1.2720   -0.3520 C   0  0  0  0  0  0  0  0  0  0  0  0
   -1.1270    0.6970   -0.2280 O   0  0  0  0  0  0  0  0  0  0  0  0
    0.1080    2.7700   -0.4640 C   0  0  1  0  0  0  0  0  0  0  0  0
    1.9220    1.0000   -0.4970 H   0  0  0  0  0  0  0  0  0  0  0  0
   -0.9810    3.5420   -0.6950 C   0  0  2  0  0  0  0  0  0  0  0  0
   -0.8500    4.8870   -0.6990 C   0  0  0  0  0  0  0  0  0  0  0  0
    0.3150    5.5380   -0.4310 C   0  0  2  0  0  0  0  0  0  0  0  0
    1.4140    4.7480   -0.2340 C   0  0  2  0  0  0  0  0  0  0  0  0
    1.2910    3.3940   -0.2650 C   0  0  0  0  0  0  0  0  0  0  0  0
    0.2830    7.0710   -0.1720 C   0  0  1  0  0  0  0  0  0  0  0  0
   -1.7620    5.4490   -0.8700 H   0  0  0  0  0  0  0  0  0  0  0  0
   -3.1240    3.1600    0.1880 C   0  0  0  0  0  0  0  0  0  0  0  0
    2.1830    2.8170   -0.0550 H   0  0  0  0  0  0  0  0  0  0  0  0
    2.7960    5.2790    0.1030 C   0  0  0  0  0  0  0  0  0  0  0  0
   -3.8260    3.9670   -0.0430 H   0  0  0  0  0  0  0  0  0  0  0  0
   -2.6100    3.3790    1.1320 H   0  0  0  0  0  0  0  0  0  0  0  0
   -3.6940    2.2350    0.3190 H   0  0  0  0  0  0  0  0  0  0  0  0
   -2.2340    2.9880   -0.9190 O   0  0  0  0  0  0  0  0  0  0  0  0
    2.8700    5.7840    1.5370 C   0  0  0  0  0  0  0  0  0  0  0  0
    2.4810    5.0370    2.2360 H   0  0  0  0  0  0  0  0  0  0  0  0
    3.9050    6.0070    1.8090 H   0  0  0  0  0  0  0  0  0  0  0  0
    2.2940    6.7000    1.6810 H   0  0  0  0  0  0  0  0  0  0  0  0
    3.5490    4.4850   -0.0060 H   0  0  0  0  0  0  0  0  0  0  0  0
    3.1080    6.0360   -0.6240 H   0  0  0  0  0  0  0  0  0  0  0  0
    1.3140    8.1240   -0.6350 C   0  0  0  0  0  0  0  0  0  0  0  0
    0.7040    9.3770    0.0010 C   0  0  2  0  0  0  0  0  0  0  0  0
   -0.7530    9.1660   -0.0820 N   0  0  0  0  0  0  0  0  0  0  0  0
   -0.9420    7.8020   -0.5760 N   0  0  0  0  0  0  0  0  0  0  0  0
    1.0640   10.7140   -0.4790 C   0  0  0  0  0  0  0  0  0  0  0  0
   -1.7600    7.3860   -0.1290 H   0  0  0  0  0  0  0  0  0  0  0  0
   -1.1690    9.8490   -0.7210 H   0  0  0  0  0  0  0  0  0  0  0  0
    2.3210    7.9700   -0.2410 H   0  0  0  0  0  0  0  0  0  0  0  0
    0.9700    9.3590    1.0680 H   0  0  0  0  0  0  0  0  0  0  0  0
    1.3820    8.1920   -1.7290 H   0  0  0  0  0  0  0  0  0  0  0  0
    0.2780    7.0970    0.9300 H   0  0  0  0  0  0  0  0  0  0  0  0
    1.1900   11.9090   -0.5890 C   0  0  0  0  0  0  0  0  0  0  0  0
    1.2240   13.3510   -0.5210 C   0  0  0  0  0  0  0  0  0  0  0  0
    0.0150   13.9300   -0.4980 O   0  0  0  0  0  0  0  0  0  0  0  0
    2.2610   13.9840   -0.4140 O   0  0  0  0  0  0  0  0  0  0  0  0
    0.2090   14.8800   -0.3630 H   0  0  0  0  0  0  0  0  0  0  0  0
  1  5  1  0  0  0  0
  2  1  1  0  0  0  0
  3  2  2  0  0  0  0
  4  2  1  1  0  0  0
  4 10  5  0  0  0  0
  6  4  5  0  0  0  0
  6  7  5  0  0  0  0
  6 19  1  1  0  0  0
  7 12  1  0  0  0  0
  8  7  5  1  0  0  0
  8 11  1  0  0  0  0
  9  8  5  0  0  0  0
  9 15  1  1  0  0  0
 10  9  5  0  0  0  0
 10 14  1  0  0  0  0
 11 29  1  0  0  0  0
 11 36  1  1  0  0  0
 13 16  1  0  0  0  0
 13 17  1  0  0  0  0
 13 18  1  0  0  0  0
 13 19  1  0  0  0  0
 15 24  1  0  0  0  0
 15 25  1  0  0  0  0
 20 21  1  0  0  0  0
 20 22  1  0  0  0  0
 20 23  1  0  0  0  0
 20 15  1  0  0  0  0
 26 11  1  0  0  0  0
 26 33  1  0  0  0  0
 26 35  1  0  0  0  0
 27 26  1  0  0  0  0
 27 34  1  1  0  0  0
 28 27  1  0  0  0  0
 29 28  1  0  0  0  0
 30 27  1  0  0  0  0
 31 29  1  0  0  0  0
 32 28  1  0  0  0  0
 37 30  3  0  0  0  0
 38 37  1  0  0  0  0
 38 40  2  0  0  0  0
 39 38  1  0  0  0  0
 41 39  1  0  0  0  0
M  END
