34

O          1.20800        0.15600       -0.82700
C          0.14700        0.83200       -0.35100
O         -0.85700        0.18100       -0.09400
C          0.25100        2.35300       -0.19300
H          2.02700        0.63100       -0.99300
C         -0.94900        3.01800       -0.03700
C         -0.93300        4.35900        0.13700
C          0.18800        5.09600        0.10400
C          1.34500        4.43400       -0.04500
C          1.41900        3.08400       -0.16700
N          0.19600        6.46800        0.22400
H         -1.85600        4.90600        0.29900
C         -2.33600        2.35000       -0.07800
C          2.85600        2.58200       -0.24800
H          2.24800        5.04300       -0.05800
N         -0.78400        7.05600       -0.28200
C         -0.64300        8.37700       -0.15700
C          3.25900        1.67300        0.90800
H          3.56000        2.27000        1.77500
H          2.45600        1.00800        1.23600
H          4.11300        1.05500        0.61300
H          3.57200        3.41800       -0.23800
H          3.03800        2.12700       -1.22800
C         -0.51000        9.56600       -0.08900
C         -0.30200       10.98200       -0.02700
C         -3.57900        3.24900       -0.11400
H         -3.53000        3.96700       -0.94100
H         -3.70100        3.79800        0.82600
H         -4.47800        2.64300       -0.25800
H         -2.39800        1.74100       -0.98800
H         -2.44500        1.70200        0.79900
O         -1.43600       11.69900        0.03000
O          0.79800       11.49800       -0.03800
H         -1.11400       12.63000        0.05600
