
 OpenBabel11042013043D

 27 27  0  0  1  0  0  0  0  0999 V2000
    1.3040    0.5970    0.9270 O   0  0  0  0  0  0  0  0  0  0  0  0
    0.1320    1.2410    0.7210 C   0  0  0  0  0  0  0  0  0  0  0  0
   -0.9180    0.6280    0.8560 O   0  0  0  0  0  0  0  0  0  0  0  0
    0.2390    2.6910    0.3090 C   0  0  2  0  0  0  0  0  0  0  0  0
    2.0860    1.1520    0.7160 H   0  0  0  0  0  0  0  0  0  0  0  0
   -0.8850    3.4550    0.2090 C   0  0  2  0  0  0  0  0  0  0  0  0
   -0.7980    4.7620   -0.1720 C   0  0  1  0  0  0  0  0  0  0  0  0
    0.4280    5.3210   -0.3510 C   0  0  2  0  0  0  0  0  0  0  0  0
    1.5450    4.5610   -0.2780 C   0  0  2  0  0  0  0  0  0  0  0  0
    1.4450    3.2530    0.0280 C   0  0  1  0  0  0  0  0  0  0  0  0
    0.6360    6.7740   -0.5780 C   0  0  0  0  0  0  0  0  0  0  0  0
   -2.0770    5.5410   -0.4200 C   0  0  0  0  0  0  0  0  0  0  0  0
   -2.9140    2.3200   -0.3310 C   0  0  0  0  0  0  0  0  0  0  0  0
    2.6310    2.5180    0.0780 O   0  0  0  0  0  0  0  0  0  0  0  0
    2.8320    5.0580   -0.4980 O   0  0  0  0  0  0  0  0  0  0  0  0
   -3.6720    3.0090   -0.7130 H   0  0  0  0  0  0  0  0  0  0  0  0
   -2.3250    1.9140   -1.1580 H   0  0  0  0  0  0  0  0  0  0  0  0
   -3.4430    1.5030    0.1710 H   0  0  0  0  0  0  0  0  0  0  0  0
   -2.1200    2.9890    0.6450 O   0  0  0  0  0  0  0  0  0  0  0  0
    2.8300    5.9820   -0.8260 H   0  0  0  0  0  0  0  0  0  0  0  0
    3.3790    3.1020   -0.1780 H   0  0  0  0  0  0  0  0  0  0  0  0
   -1.9190    6.4550   -0.9990 H   0  0  0  0  0  0  0  0  0  0  0  0
   -2.5860    5.7920    0.5140 H   0  0  0  0  0  0  0  0  0  0  0  0
   -2.7540    4.9610   -1.0560 H   0  0  0  0  0  0  0  0  0  0  0  0
   -0.1740    7.5460    0.1690 O   0  0  0  0  0  0  0  0  0  0  0  0
    1.5460    7.2620   -1.2290 O   0  0  0  0  0  0  0  0  0  0  0  0
    0.1150    8.4670    0.0030 H   0  0  0  0  0  0  0  0  0  0  0  0
  1  5  1  0  0  0  0
  2  1  1  0  0  0  0
  3  2  2  0  0  0  0
  4  2  1  6  0  0  0
  4 10  5  0  0  0  0
  6  4  5  0  0  0  0
  6  7  5  0  0  0  0
  6 19  1  1  0  0  0
  7 12  1  6  0  0  0
  8  7  5  0  0  0  0
  8 11  1  1  0  0  0
  9  8  5  0  0  0  0
  9 15  1  1  0  0  0
 10  9  5  0  0  0  0
 10 14  1  1  0  0  0
 11 26  2  0  0  0  0
 12 22  1  0  0  0  0
 12 23  1  0  0  0  0
 12 24  1  0  0  0  0
 13 16  1  0  0  0  0
 13 17  1  0  0  0  0
 13 18  1  0  0  0  0
 13 19  1  0  0  0  0
 14 21  1  0  0  0  0
 15 20  1  0  0  0  0
 25 11  1  0  0  0  0
 27 25  1  0  0  0  0
M  END
