40

O          0.96200       -0.79100        0.01900
C         -0.20900       -0.11900        0.05800
O         -1.28000       -0.69600        0.18500
C         -0.07600        1.36800       -0.08900
H          1.71700       -0.15700       -0.01800
C         -1.21000        2.02100       -0.40900
C         -1.21200        3.35700       -0.56000
C         -0.11700        4.12700       -0.33000
C          1.02300        3.43700       -0.03600
C          1.05700        2.08800        0.05900
C         -0.15800        5.64400       -0.33700
H         -2.16200        3.78000       -0.86100
H         -2.14300        1.47700       -0.55300
N          2.32100        1.43800        0.32900
H          1.94800        3.96900        0.15200
H          3.07500        1.95700       -0.13700
H          2.56500        1.61300        1.31300
C         -1.29900        6.40000       -0.21200
C         -1.24200        7.73900       -0.10300
C         -0.08200        8.42400       -0.04500
C          1.04600        7.71500       -0.25800
C          1.00200        6.37000       -0.41800
C         -0.15100        9.88600        0.34300
H         -2.17300        8.28700        0.02700
N         -2.62200        5.86700       -0.09700
H          1.96000        5.88500       -0.56700
H          2.01900        8.20500       -0.25500
C          0.91300       10.89300       -0.02200
N          0.09000       12.08000       -0.07800
N         -1.22600       11.79200       -0.25100
N         -1.38700       10.55100       -0.16000
C          0.53000       13.36600        0.04500
H          1.36100       10.73700       -1.00700
H          1.69700       10.99400        0.73500
H         -0.23400        9.88600        1.44200
H         -2.68500        5.15000        0.62100
H         -3.35800        6.55100        0.05700
O         -0.45800       14.28600        0.02000
O          1.68900       13.72100        0.19900
H          0.00200       15.13800        0.14500
