
 OpenBabel11032017293D

 48 51  0  0  1  0  0  0  0  0999 V2000
    1.6020   -1.1190   -0.2500 O   0  0  0  0  0  0  0  0  0  0  0  0
    0.3530   -0.6280   -0.3860 C   0  0  0  0  0  0  0  0  0  0  0  0
   -0.6160   -1.3660   -0.5000 O   0  0  0  0  0  0  0  0  0  0  0  0
    0.2550    0.8680   -0.3210 C   0  0  1  0  0  0  0  0  0  0  0  0
    2.2650   -0.4010   -0.1640 H   0  0  0  0  0  0  0  0  0  0  0  0
   -1.0030    1.3510   -0.3400 C   0  0  0  0  0  0  0  0  0  0  0  0
   -1.2200    2.6680   -0.1860 C   0  0  0  0  0  0  0  0  0  0  0  0
   -0.2010    3.5430   -0.0050 C   0  0  2  0  0  0  0  0  0  0  0  0
    1.0590    3.0550   -0.0490 C   0  0  0  0  0  0  0  0  0  0  0  0
    1.2960    1.7290   -0.1990 C   0  0  1  0  0  0  0  0  0  0  0  0
   -0.4920    4.9860    0.3850 C   0  0  1  0  0  0  0  0  0  0  0  0
   -2.2620    2.9810   -0.1620 H   0  0  0  0  0  0  0  0  0  0  0  0
   -1.8620    0.6910   -0.4430 H   0  0  0  0  0  0  0  0  0  0  0  0
    2.6010    1.2580   -0.1830 O   0  0  0  0  0  0  0  0  0  0  0  0
    1.8850    3.7460    0.0960 H   0  0  0  0  0  0  0  0  0  0  0  0
    3.2500    1.9860   -0.1450 H   0  0  0  0  0  0  0  0  0  0  0  0
    0.3150    6.0670   -0.1750 O   0  0  0  0  0  0  0  0  0  0  0  0
   -1.8350    6.9260    0.2230 C   0  0  0  0  0  0  0  0  0  0  0  0
   -1.9230    5.4360    0.1390 C   0  0  0  0  0  0  0  0  0  0  0  0
    0.0360    8.6660    0.0080 C   0  0  1  0  0  0  0  0  0  0  0  0
   -2.6270    5.0280    0.8710 H   0  0  0  0  0  0  0  0  0  0  0  0
   -2.4210    7.3140    1.0630 H   0  0  0  0  0  0  0  0  0  0  0  0
   -2.2380    7.3460   -0.7070 H   0  0  0  0  0  0  0  0  0  0  0  0
   -2.2700    5.1630   -0.8650 H   0  0  0  0  0  0  0  0  0  0  0  0
   -0.1020    7.1900    1.4680 H   0  0  0  0  0  0  0  0  0  0  0  0
   -0.3390    7.2320    0.3930 C   0  0  2  0  0  0  0  0  0  0  0  0
   -0.3090    5.0100    1.4720 H   0  0  0  0  0  0  0  0  0  0  0  0
   -0.9600    9.5760    0.0690 C   0  0  0  0  0  0  0  0  0  0  0  0
   -0.7470   10.8820   -0.0390 C   0  0  0  0  0  0  0  0  0  0  0  0
    0.4940   11.3810   -0.2080 C   0  0  2  0  0  0  0  0  0  0  0  0
    1.5040   10.4900   -0.3650 C   0  0  0  0  0  0  0  0  0  0  0  0
    1.2770    9.1500   -0.2620 C   0  0  0  0  0  0  0  0  0  0  0  0
    0.5280   12.8900   -0.0840 C   0  0  1  0  0  0  0  0  0  0  0  0
   -1.6050   11.5420    0.0760 H   0  0  0  0  0  0  0  0  0  0  0  0
   -1.9930    9.3050    0.2750 H   0  0  0  0  0  0  0  0  0  0  0  0
    2.1180    8.4610   -0.3320 H   0  0  0  0  0  0  0  0  0  0  0  0
    2.5240   10.8370   -0.5190 H   0  0  0  0  0  0  0  0  0  0  0  0
    1.7240   13.7930   -0.2050 C   0  0  0  0  0  0  0  0  0  0  0  0
    1.0020   15.0250   -0.4800 N   0  0  0  0  0  0  0  0  0  0  0  0
   -0.2090   14.7790   -1.0650 N   0  0  0  0  0  0  0  0  0  0  0  0
   -0.4270   13.5410   -1.0280 N   0  0  0  0  0  0  0  0  0  0  0  0
    1.2780   16.2480    0.0680 C   0  0  0  0  0  0  0  0  0  0  0  0
    2.3590   13.5730   -1.0670 H   0  0  0  0  0  0  0  0  0  0  0  0
    2.3190   13.8640    0.7100 H   0  0  0  0  0  0  0  0  0  0  0  0
    0.1280   13.0810    0.9280 H   0  0  0  0  0  0  0  0  0  0  0  0
    0.3070   17.1680   -0.1280 O   0  0  0  0  0  0  0  0  0  0  0  0
    2.2640   16.5420    0.7260 O   0  0  0  0  0  0  0  0  0  0  0  0
    0.6200   17.9590    0.3520 H   0  0  0  0  0  0  0  0  0  0  0  0
  1  5  1  0  0  0  0
  2  1  1  0  0  0  0
  3  2  2  0  0  0  0
  4  2  1  1  0  0  0
  4 10  5  0  0  0  0
  6  4  5  0  0  0  0
  6  7  5  0  0  0  0
  6 13  1  0  0  0  0
  7 12  1  0  0  0  0
  8  7  5  1  0  0  0
  8 11  1  0  0  0  0
  9  8  5  0  0  0  0
  9 15  1  0  0  0  0
 10  9  5  0  0  0  0
 10 14  1  1  0  0  0
 11 19  1  0  0  0  0
 11 27  1  1  0  0  0
 14 16  1  0  0  0  0
 17 11  1  0  0  0  0
 18 26  1  0  0  0  0
 18 23  1  0  0  0  0
 19 18  1  0  0  0  0
 19 24  1  0  0  0  0
 20 26  1  0  0  0  0
 20 28  5  1  0  0  0
 20 32  5  0  0  0  0
 21 19  1  0  0  0  0
 22 18  1  0  0  0  0
 26 17  1  0  0  0  0
 26 25  1  1  0  0  0
 28 29  5  0  0  0  0
 28 35  1  0  0  0  0
 29 34  1  0  0  0  0
 30 29  5  1  0  0  0
 30 33  1  0  0  0  0
 31 30  5  0  0  0  0
 31 37  1  0  0  0  0
 32 31  5  0  0  0  0
 32 36  1  0  0  0  0
 33 41  1  0  0  0  0
 33 45  1  1  0  0  0
 38 33  1  0  0  0  0
 38 43  1  0  0  0  0
 38 44  1  0  0  0  0
 39 38  1  0  0  0  0
 40 39  1  0  0  0  0
 41 40  2  0  0  0  0
 42 39  1  0  0  0  0
 42 47  2  0  0  0  0
 46 42  1  0  0  0  0
 48 46  1  0  0  0  0
M  END
