
 OpenBabel11042013043D

 47 50  0  0  1  0  0  0  0  0999 V2000
    1.1190   -1.6610    0.3160 O   0  0  0  0  0  0  0  0  0  0  0  0
    0.0140   -0.9370    0.6050 C   0  0  0  0  0  0  0  0  0  0  0  0
   -1.0470   -1.4800    0.8780 O   0  0  0  0  0  0  0  0  0  0  0  0
    0.1830    0.5460    0.4820 C   0  0  2  0  0  0  0  0  0  0  0  0
    1.8520   -1.1650   -0.0870 H   0  0  0  0  0  0  0  0  0  0  0  0
   -0.9430    1.2760    0.3370 C   0  0  0  0  0  0  0  0  0  0  0  0
   -0.8750    2.6000    0.0940 C   0  0  0  0  0  0  0  0  0  0  0  0
    0.3210    3.2310   -0.0270 C   0  0  1  0  0  0  0  0  0  0  0  0
    1.4380    2.5020    0.2090 C   0  0  0  0  0  0  0  0  0  0  0  0
    1.3750    1.1810    0.4700 C   0  0  0  0  0  0  0  0  0  0  0  0
    0.4690    4.6220   -0.6270 C   0  0  2  0  0  0  0  0  0  0  0  0
   -1.8090    3.1320   -0.0810 H   0  0  0  0  0  0  0  0  0  0  0  0
   -1.9220    0.7950    0.3660 H   0  0  0  0  0  0  0  0  0  0  0  0
    2.3110    0.6560    0.6260 H   0  0  0  0  0  0  0  0  0  0  0  0
    2.4170    2.9700    0.1260 H   0  0  0  0  0  0  0  0  0  0  0  0
    0.7310    5.9020    0.1650 C   0  0  0  0  0  0  0  0  0  0  0  0
    0.1650    6.8490   -0.7940 N   0  0  0  0  0  0  0  0  0  0  0  0
   -0.8220    6.2210   -1.5310 N   0  0  0  0  0  0  0  0  0  0  0  0
   -0.7410    4.9830   -1.4020 N   0  0  0  0  0  0  0  0  0  0  0  0
   -0.1200    8.2490   -0.6070 C   0  0  2  0  0  0  0  0  0  0  0  0
    1.7970    6.1000    0.3110 H   0  0  0  0  0  0  0  0  0  0  0  0
    0.1840    5.9490    1.1100 H   0  0  0  0  0  0  0  0  0  0  0  0
    1.2580    4.5380   -1.3890 H   0  0  0  0  0  0  0  0  0  0  0  0
    0.9400    9.1880   -0.2700 O   0  0  0  0  0  0  0  0  0  0  0  0
   -1.1790   10.0800    0.3320 C   0  0  0  0  0  0  0  0  0  0  0  0
   -1.2020    8.5710    0.3920 C   0  0  0  0  0  0  0  0  0  0  0  0
    0.7120   11.8030   -0.0050 C   0  0  2  0  0  0  0  0  0  0  0  0
   -0.9270    8.2310    1.3970 H   0  0  0  0  0  0  0  0  0  0  0  0
   -1.2800   10.5110    1.3330 H   0  0  0  0  0  0  0  0  0  0  0  0
   -2.0080   10.4500   -0.2830 H   0  0  0  0  0  0  0  0  0  0  0  0
   -2.1760    8.1480    0.1330 H   0  0  0  0  0  0  0  0  0  0  0  0
   -0.0200   10.5340   -1.4330 H   0  0  0  0  0  0  0  0  0  0  0  0
    0.1670   10.4220   -0.3510 C   0  0  1  0  0  0  0  0  0  0  0  0
   -0.4530    8.5430   -1.6150 H   0  0  0  0  0  0  0  0  0  0  0  0
   -0.2080   12.8030   -0.0110 C   0  0  0  0  0  0  0  0  0  0  0  0
    0.1190   14.0870    0.1550 C   0  0  0  0  0  0  0  0  0  0  0  0
    1.4090   14.4320    0.3280 C   0  0  1  0  0  0  0  0  0  0  0  0
    2.3430   13.4540    0.3730 C   0  0  1  0  0  0  0  0  0  0  0  0
    2.0030   12.1560    0.2160 C   0  0  0  0  0  0  0  0  0  0  0  0
    1.7640   15.8720    0.4160 C   0  0  0  0  0  0  0  0  0  0  0  0
   -0.6750   14.8300    0.1120 H   0  0  0  0  0  0  0  0  0  0  0  0
   -1.2600   12.5910   -0.1930 H   0  0  0  0  0  0  0  0  0  0  0  0
    2.7880   11.4040    0.2240 H   0  0  0  0  0  0  0  0  0  0  0  0
    3.6470   13.7640    0.5480 F   0  0  0  0  0  0  0  0  0  0  0  0
    0.6910   16.6840    0.3890 O   0  0  0  0  0  0  0  0  0  0  0  0
    2.8860   16.3540    0.4690 O   0  0  0  0  0  0  0  0  0  0  0  0
    1.0670   17.5900    0.3960 H   0  0  0  0  0  0  0  0  0  0  0  0
  1  5  1  0  0  0  0
  2  1  1  0  0  0  0
  3  2  2  0  0  0  0
  4  2  1  6  0  0  0
  4 10  5  0  0  0  0
  6  4  5  0  0  0  0
  6  7  5  0  0  0  0
  6 13  1  0  0  0  0
  7 12  1  0  0  0  0
  8  7  5  6  0  0  0
  8 11  1  0  0  0  0
  9  8  5  0  0  0  0
  9 15  1  0  0  0  0
 10  9  5  0  0  0  0
 10 14  1  0  0  0  0
 11 19  1  0  0  0  0
 11 23  1  6  0  0  0
 16 11  1  0  0  0  0
 16 21  1  0  0  0  0
 16 22  1  0  0  0  0
 17 16  1  0  0  0  0
 18 17  1  0  0  0  0
 19 18  2  0  0  0  0
 20 17  1  0  0  0  0
 20 26  1  0  0  0  0
 20 34  1  6  0  0  0
 24 20  1  0  0  0  0
 25 33  1  0  0  0  0
 25 30  1  0  0  0  0
 26 25  1  0  0  0  0
 26 31  1  0  0  0  0
 27 33  1  0  0  0  0
 27 35  5  6  0  0  0
 27 39  5  0  0  0  0
 28 26  1  0  0  0  0
 29 25  1  0  0  0  0
 33 24  1  0  0  0  0
 33 32  1  6  0  0  0
 35 36  5  0  0  0  0
 35 42  1  0  0  0  0
 36 41  1  0  0  0  0
 37 36  5  0  0  0  0
 37 40  1  6  0  0  0
 38 37  5  0  0  0  0
 38 44  1  6  0  0  0
 39 38  5  0  0  0  0
 39 43  1  0  0  0  0
 40 46  2  0  0  0  0
 45 40  1  0  0  0  0
 47 45  1  0  0  0  0
M  END
