36

O          1.31700       -0.06300        0.13300
C          0.14900        0.62200        0.15100
O         -0.89900       -0.00000        0.22800
C          0.26500        2.12400        0.06900
H          2.13700        0.43500        0.01400
C         -0.86700        2.87600       -0.00000
C         -0.77500        4.22100       -0.08000
C          0.41700        4.85300       -0.09000
C          1.53300        4.10000       -0.02400
C          1.46100        2.76000        0.06100
C          0.57300        6.29500       -0.19100
H         -1.69500        4.79400       -0.13800
O         -2.12700        2.30400        0.00500
H          2.41500        2.25400        0.12300
H          2.51600        4.56900       -0.03100
C         -0.37900        7.22100       -0.00200
C         -0.18200        8.66200       -0.03300
H         -1.39500        6.90400        0.22400
H          1.58500        6.62000       -0.41800
C         -1.27300        9.45800       -0.01100
C         -1.18900       10.80900        0.01700
C          0.04600       11.37900       -0.00100
C          1.14400       10.59000       -0.02200
C          1.03200        9.25100       -0.02700
C          0.35900       12.84000        0.00700
C         -2.48700       11.57500        0.07100
H         -2.25900        8.99800       -0.00400
H          1.95000        8.67200       -0.01900
H          2.14800       11.01600       -0.02300
H         -2.85200        2.93900       -0.10600
H         -3.35700       10.91400       -0.03000
H         -2.56300       12.30000       -0.74400
H         -2.58700       12.07700        1.03900
O         -0.70500       13.64300        0.13000
O          1.47400       13.33500       -0.08000
H         -0.31300       14.54000        0.10500
