
 OpenBabel11042013043D

 32 33  0  0  1  0  0  0  0  0999 V2000
    0.2380   -0.2430   -0.3710 O   0  0  0  0  0  0  0  0  0  0  0  0
   -0.8920    0.4690   -0.1760 C   0  0  0  0  0  0  0  0  0  0  0  0
   -1.9610   -0.0880    0.0320 O   0  0  0  0  0  0  0  0  0  0  0  0
   -0.7290    1.9600   -0.1830 C   0  0  1  0  0  0  0  0  0  0  0  0
    1.0100    0.3210   -0.5810 H   0  0  0  0  0  0  0  0  0  0  0  0
   -1.8500    2.6700    0.0660 C   0  0  0  0  0  0  0  0  0  0  0  0
   -1.8140    4.0120    0.1680 C   0  0  2  0  0  0  0  0  0  0  0  0
   -0.6500    4.6930   -0.0080 C   0  0  2  0  0  0  0  0  0  0  0  0
    0.4540    3.9660   -0.3060 C   0  0  0  0  0  0  0  0  0  0  0  0
    0.4410    2.6150   -0.3640 C   0  0  1  0  0  0  0  0  0  0  0  0
   -0.5710    6.1980    0.2140 C   0  0  1  0  0  0  0  0  0  0  0  0
   -3.3070    4.8030    0.5880 Cl  0  0  0  0  0  0  0  0  0  0  0  0
   -2.7960    2.1530    0.2220 H   0  0  0  0  0  0  0  0  0  0  0  0
    2.6300    2.2390    0.3970 C   0  0  0  0  0  0  0  0  0  0  0  0
    1.4040    4.4620   -0.4740 H   0  0  0  0  0  0  0  0  0  0  0  0
    0.7400    6.9400    0.0350 C   0  0  0  0  0  0  0  0  0  0  0  0
    0.2290    8.2070   -0.3810 N   0  0  0  0  0  0  0  0  0  0  0  0
   -1.0430    8.1200   -0.8670 N   0  0  0  0  0  0  0  0  0  0  0  0
   -1.4640    6.9480   -0.7030 N   0  0  0  0  0  0  0  0  0  0  0  0
    0.8410    9.3780   -0.1100 N   0  0  0  0  0  0  0  0  0  0  0  0
    1.3530    6.5780   -0.7970 H   0  0  0  0  0  0  0  0  0  0  0  0
    1.3370    7.0000    0.9500 H   0  0  0  0  0  0  0  0  0  0  0  0
   -0.9110    6.3910    1.2440 H   0  0  0  0  0  0  0  0  0  0  0  0
    3.2970    1.3780    0.4950 H   0  0  0  0  0  0  0  0  0  0  0  0
    2.1970    2.4450    1.3830 H   0  0  0  0  0  0  0  0  0  0  0  0
    3.2150    3.0950    0.0480 H   0  0  0  0  0  0  0  0  0  0  0  0
    1.6200    1.9040   -0.5650 O   0  0  0  0  0  0  0  0  0  0  0  0
    0.2610   10.3020   -0.7030 N   0  0  0  0  0  0  0  0  0  0  0  0
    0.4680   11.5180   -0.1170 C   0  0  0  0  0  0  0  0  0  0  0  0
   -0.6460   12.2670   -0.2120 O   0  0  0  0  0  0  0  0  0  0  0  0
    1.4690   11.9560    0.4360 O   0  0  0  0  0  0  0  0  0  0  0  0
   -0.4240   13.0810    0.2780 H   0  0  0  0  0  0  0  0  0  0  0  0
  1  5  1  0  0  0  0
  2  1  1  0  0  0  0
  3  2  2  0  0  0  0
  4  2  1  1  0  0  0
  4 10  5  0  0  0  0
  6  4  5  0  0  0  0
  6  7  5  0  0  0  0
  6 13  1  0  0  0  0
  7 12  1  1  0  0  0
  8  7  5  0  0  0  0
  8  9  5  1  0  0  0
  8 11  1  0  0  0  0
  9 15  1  0  0  0  0
 10  9  5  0  0  0  0
 10 27  1  1  0  0  0
 11 19  1  0  0  0  0
 11 23  1  1  0  0  0
 14 24  1  0  0  0  0
 14 25  1  0  0  0  0
 14 26  1  0  0  0  0
 14 27  1  0  0  0  0
 16 11  1  0  0  0  0
 16 21  1  0  0  0  0
 16 22  1  0  0  0  0
 17 16  1  0  0  0  0
 18 17  1  0  0  0  0
 19 18  2  0  0  0  0
 20 17  1  0  0  0  0
 28 20  2  0  0  0  0
 29 28  1  0  0  0  0
 29 31  2  0  0  0  0
 30 29  1  0  0  0  0
 32 30  1  0  0  0  0
M  END
