31

O          0.76800        0.39600        0.87300
C          0.44400        1.11600       -0.21400
O          0.13800        0.58200       -1.27000
C          0.45100        2.57000        0.03600
H          0.69400       -0.53100        0.56500
C         -0.74800        3.12900        0.33200
C         -0.85800        4.47500        0.49100
C          0.26200        5.22400        0.36600
C          1.46800        4.65900        0.13400
C          1.59300        3.31200       -0.04100
C          0.22100        6.70100        0.47800
C         -2.98900        5.22400       -0.22200
N         -1.91800        2.31700        0.52800
C          3.02400        2.80200       -0.28100
O          2.63100        5.43500        0.05600
C          3.39400        1.32400       -0.26800
H          4.47200        1.21800       -0.43700
H          3.18400        0.86500        0.70100
H          2.89300        0.76800       -1.06500
H          3.66300        3.24800        0.49600
H          3.36700        3.21000       -1.24100
H         -2.76400        2.83100        0.75700
H         -2.08500        1.62400       -0.19700
H         -2.57200        5.83900       -1.02100
H         -3.87300        5.73100        0.17900
H         -3.31800        4.26700       -0.63500
O         -2.07200        5.05600        0.86100
H          2.52200        6.32800        0.44000
O         -0.73600        7.27600       -0.27200
O          1.07100        7.38600        1.03000
H         -0.57700        8.23900       -0.17600
