
 OpenBabel11042013043D

 31 31  0  0  1  0  0  0  0  0999 V2000
    0.7680    0.3960    0.8730 O   0  0  0  0  0  0  0  0  0  0  0  0
    0.4440    1.1160   -0.2140 C   0  0  0  0  0  0  0  0  0  0  0  0
    0.1380    0.5820   -1.2700 O   0  0  0  0  0  0  0  0  0  0  0  0
    0.4510    2.5700    0.0360 C   0  0  2  0  0  0  0  0  0  0  0  0
    0.6940   -0.5310    0.5650 H   0  0  0  0  0  0  0  0  0  0  0  0
   -0.7480    3.1290    0.3320 C   0  0  2  0  0  0  0  0  0  0  0  0
   -0.8580    4.4750    0.4910 C   0  0  2  0  0  0  0  0  0  0  0  0
    0.2620    5.2240    0.3660 C   0  0  2  0  0  0  0  0  0  0  0  0
    1.4680    4.6590    0.1340 C   0  0  1  0  0  0  0  0  0  0  0  0
    1.5930    3.3120   -0.0410 C   0  0  1  0  0  0  0  0  0  0  0  0
    0.2210    6.7010    0.4780 C   0  0  0  0  0  0  0  0  0  0  0  0
   -2.9890    5.2240   -0.2220 C   0  0  0  0  0  0  0  0  0  0  0  0
   -1.9180    2.3170    0.5280 N   0  0  0  0  0  0  0  0  0  0  0  0
    3.0240    2.8020   -0.2810 C   0  0  0  0  0  0  0  0  0  0  0  0
    2.6310    5.4350    0.0560 O   0  0  0  0  0  0  0  0  0  0  0  0
    3.3940    1.3240   -0.2680 C   0  0  0  0  0  0  0  0  0  0  0  0
    4.4720    1.2180   -0.4370 H   0  0  0  0  0  0  0  0  0  0  0  0
    3.1840    0.8650    0.7010 H   0  0  0  0  0  0  0  0  0  0  0  0
    2.8930    0.7680   -1.0650 H   0  0  0  0  0  0  0  0  0  0  0  0
    3.6630    3.2480    0.4960 H   0  0  0  0  0  0  0  0  0  0  0  0
    3.3670    3.2100   -1.2410 H   0  0  0  0  0  0  0  0  0  0  0  0
   -2.7640    2.8310    0.7570 H   0  0  0  0  0  0  0  0  0  0  0  0
   -2.0850    1.6240   -0.1970 H   0  0  0  0  0  0  0  0  0  0  0  0
   -2.5720    5.8390   -1.0210 H   0  0  0  0  0  0  0  0  0  0  0  0
   -3.8730    5.7310    0.1790 H   0  0  0  0  0  0  0  0  0  0  0  0
   -3.3180    4.2670   -0.6350 H   0  0  0  0  0  0  0  0  0  0  0  0
   -2.0720    5.0560    0.8610 O   0  0  0  0  0  0  0  0  0  0  0  0
    2.5220    6.3280    0.4400 H   0  0  0  0  0  0  0  0  0  0  0  0
   -0.7360    7.2760   -0.2720 O   0  0  0  0  0  0  0  0  0  0  0  0
    1.0710    7.3860    1.0300 O   0  0  0  0  0  0  0  0  0  0  0  0
   -0.5770    8.2390   -0.1760 H   0  0  0  0  0  0  0  0  0  0  0  0
  1  5  1  0  0  0  0
  2  1  1  0  0  0  0
  3  2  2  0  0  0  0
  4  2  1  6  0  0  0
  4 10  5  0  0  0  0
  6  4  5  0  0  0  0
  6  7  5  0  0  0  0
  6 13  1  1  0  0  0
  7 27  1  1  0  0  0
  8  7  5  0  0  0  0
  8 11  1  1  0  0  0
  9  8  5  0  0  0  0
  9 15  1  6  0  0  0
 10  9  5  0  0  0  0
 10 14  1  1  0  0  0
 11 30  2  0  0  0  0
 12 24  1  0  0  0  0
 12 25  1  0  0  0  0
 12 26  1  0  0  0  0
 12 27  1  0  0  0  0
 13 22  1  0  0  0  0
 13 23  1  0  0  0  0
 14 20  1  0  0  0  0
 14 21  1  0  0  0  0
 15 28  1  0  0  0  0
 16 17  1  0  0  0  0
 16 18  1  0  0  0  0
 16 19  1  0  0  0  0
 16 14  1  0  0  0  0
 29 11  1  0  0  0  0
 31 29  1  0  0  0  0
M  END
