
 OpenBabel11042013043D

 54 57  0  0  1  0  0  0  0  0999 V2000
    1.5000   -1.0570    0.1720 O   0  0  0  0  0  0  0  0  0  0  0  0
    0.2720   -0.5250    0.3500 C   0  0  0  0  0  0  0  0  0  0  0  0
   -0.7090   -1.2410    0.5010 O   0  0  0  0  0  0  0  0  0  0  0  0
    0.2020    0.9700    0.2900 C   0  0  2  0  0  0  0  0  0  0  0  0
    2.2030   -0.4350   -0.0730 H   0  0  0  0  0  0  0  0  0  0  0  0
   -1.0400    1.4950    0.1930 C   0  0  0  0  0  0  0  0  0  0  0  0
   -1.2130    2.8230    0.0570 C   0  0  0  0  0  0  0  0  0  0  0  0
   -0.1530    3.6620    0.0010 C   0  0  1  0  0  0  0  0  0  0  0  0
    1.0830    3.1370    0.1620 C   0  0  0  0  0  0  0  0  0  0  0  0
    1.2610    1.8080    0.3080 C   0  0  0  0  0  0  0  0  0  0  0  0
   -0.3450    5.1200   -0.3390 C   0  0  2  0  0  0  0  0  0  0  0  0
   -2.2280    3.1960   -0.0560 H   0  0  0  0  0  0  0  0  0  0  0  0
   -1.9190    0.8510    0.1950 H   0  0  0  0  0  0  0  0  0  0  0  0
    2.2820    1.4610    0.4140 H   0  0  0  0  0  0  0  0  0  0  0  0
    1.9530    3.7890    0.1330 H   0  0  0  0  0  0  0  0  0  0  0  0
    0.7440    6.0060    0.0320 O   0  0  0  0  0  0  0  0  0  0  0  0
   -1.2020    7.3090   -0.0110 C   0  0  0  0  0  0  0  0  0  0  0  0
   -1.5830    5.8510    0.1670 C   0  0  0  0  0  0  0  0  0  0  0  0
    0.9840    8.4980   -0.0520 C   0  0  0  0  0  0  0  0  0  0  0  0
   -2.4830    5.5960   -0.4000 H   0  0  0  0  0  0  0  0  0  0  0  0
   -1.3270    7.8440    0.9390 H   0  0  0  0  0  0  0  0  0  0  0  0
   -1.8230    7.8180   -0.7560 H   0  0  0  0  0  0  0  0  0  0  0  0
   -1.7730    5.6450    1.2260 H   0  0  0  0  0  0  0  0  0  0  0  0
    0.3060    7.1810   -1.5610 H   0  0  0  0  0  0  0  0  0  0  0  0
    0.2590    7.2570   -0.4650 C   0  0  1  0  0  0  0  0  0  0  0  0
   -0.3790    5.1260   -1.4410 H   0  0  0  0  0  0  0  0  0  0  0  0
    0.9250    9.5310   -0.9120 C   0  0  0  0  0  0  0  0  0  0  0  0
    0.9710   10.9290   -0.5670 C   0  0  2  0  0  0  0  0  0  0  0  0
    0.5050    9.3630   -1.9040 H   0  0  0  0  0  0  0  0  0  0  0  0
    1.2910    8.6180    0.9870 H   0  0  0  0  0  0  0  0  0  0  0  0
   -0.2160   11.5630   -0.4670 C   0  0  0  0  0  0  0  0  0  0  0  0
   -0.2780   12.8650   -0.1600 C   0  0  0  0  0  0  0  0  0  0  0  0
    0.8450   13.5890    0.0610 C   0  0  2  0  0  0  0  0  0  0  0  0
    2.0360   12.9510   -0.0610 C   0  0  0  0  0  0  0  0  0  0  0  0
    2.1050   11.6350   -0.3620 C   0  0  0  0  0  0  0  0  0  0  0  0
    0.7660   15.0380    0.5080 C   0  0  1  0  0  0  0  0  0  0  0  0
   -1.2660   13.3040   -0.0780 H   0  0  0  0  0  0  0  0  0  0  0  0
   -1.1450   11.0210   -0.6280 H   0  0  0  0  0  0  0  0  0  0  0  0
    3.0710   11.1490   -0.4420 H   0  0  0  0  0  0  0  0  0  0  0  0
    2.9610   13.5000    0.1020 H   0  0  0  0  0  0  0  0  0  0  0  0
    1.6300   15.9390   -0.2090 O   0  0  0  0  0  0  0  0  0  0  0  0
   -0.2600   17.1920    0.4380 C   0  0  0  0  0  0  0  0  0  0  0  0
   -0.5950   15.7200    0.4100 C   0  0  0  0  0  0  0  0  0  0  0  0
    1.7110   18.4700   -0.5390 C   0  0  0  0  0  0  0  0  0  0  0  0
   -1.0900   15.4990   -0.5440 H   0  0  0  0  0  0  0  0  0  0  0  0
   -0.5560   17.6580    1.3840 H   0  0  0  0  0  0  0  0  0  0  0  0
   -0.8010   17.7120   -0.3610 H   0  0  0  0  0  0  0  0  0  0  0  0
   -1.2680   15.4230    1.2200 H   0  0  0  0  0  0  0  0  0  0  0  0
    1.7290   17.3600    1.2450 H   0  0  0  0  0  0  0  0  0  0  0  0
    1.2550   17.2440    0.2610 C   0  0  2  0  0  0  0  0  0  0  0  0
    1.0940   15.0550    1.5570 H   0  0  0  0  0  0  0  0  0  0  0  0
    0.9950   19.5780   -0.2410 O   0  0  0  0  0  0  0  0  0  0  0  0
    2.6540   18.5400   -1.3080 O   0  0  0  0  0  0  0  0  0  0  0  0
    1.4170   20.2840   -0.7750 H   0  0  0  0  0  0  0  0  0  0  0  0
  1  5  1  0  0  0  0
  2  1  1  0  0  0  0
  3  2  2  0  0  0  0
  4  2  1  6  0  0  0
  4 10  5  0  0  0  0
  6  4  5  0  0  0  0
  6  7  5  0  0  0  0
  6 13  1  0  0  0  0
  7 12  1  0  0  0  0
  8  7  5  6  0  0  0
  8 11  1  0  0  0  0
  9  8  5  0  0  0  0
  9 15  1  0  0  0  0
 10  9  5  0  0  0  0
 10 14  1  0  0  0  0
 11 18  1  0  0  0  0
 11 26  1  6  0  0  0
 16 11  1  0  0  0  0
 17 25  1  0  0  0  0
 17 22  1  0  0  0  0
 18 17  1  0  0  0  0
 18 23  1  0  0  0  0
 19 25  1  0  0  0  0
 19 30  1  0  0  0  0
 20 18  1  0  0  0  0
 21 17  1  0  0  0  0
 25 16  1  0  0  0  0
 25 24  1  6  0  0  0
 27 19  2  0  0  0  0
 27 29  1  0  0  0  0
 28 27  1  6  0  0  0
 28 35  5  0  0  0  0
 31 28  5  0  0  0  0
 31 32  5  0  0  0  0
 31 38  1  0  0  0  0
 32 37  1  0  0  0  0
 33 32  5  1  0  0  0
 33 36  1  0  0  0  0
 34 33  5  0  0  0  0
 34 40  1  0  0  0  0
 35 34  5  0  0  0  0
 35 39  1  0  0  0  0
 36 43  1  0  0  0  0
 36 51  1  1  0  0  0
 41 36  1  0  0  0  0
 42 50  1  0  0  0  0
 42 47  1  0  0  0  0
 43 42  1  0  0  0  0
 43 48  1  0  0  0  0
 44 50  1  0  0  0  0
 44 53  2  0  0  0  0
 45 43  1  0  0  0  0
 46 42  1  0  0  0  0
 50 41  1  0  0  0  0
 50 49  1  1  0  0  0
 52 44  1  0  0  0  0
 54 52  1  0  0  0  0
M  END
