36

O          1.20300        0.13200       -0.00000
C          0.01600        0.76800        0.00000
O         -1.04300        0.16300       -0.00000
C          0.07900        2.24500        0.00000
H          2.01500        0.66200        0.00000
C         -1.10100        2.90800       -0.00000
C         -1.11500        4.24700        0.00000
C          0.06200        4.87600        0.00000
C          1.24400        4.23200        0.00000
C          1.25100        2.90700       -0.00000
C          0.25600        6.26800        0.00000
H         -2.07800        4.76300        0.00000
H         -2.06300        2.39900       -0.00000
H          2.23500        2.47600       -0.00000
H          2.19300        4.76800        0.00000
C         -0.73300        7.13300       -0.00000
C         -0.47700        8.56300       -0.00000
H         -1.76400        6.76400       -0.00000
H          1.29000        6.56700       -0.00000
C          0.88100        9.15500        0.00000
N          0.62200       10.50700       -0.00000
N         -0.68600       10.81700        0.00000
N         -1.33500        9.79000       -0.00000
N          1.53000       11.48300        0.00000
H          1.98100        9.32900       -0.00000
H          1.53800        8.27600       -0.00000
H         -1.55500        8.45300        0.00000
N          0.83600       12.48900       -0.00000
C          1.33300       13.71300        0.00000
C          0.39000       14.64800        0.00000
C          0.68000       16.06200        0.00000
H         -0.69200       14.38100        0.00000
H          2.39700       13.82000        0.00000
O         -0.48800       16.72000       -0.00000
O          1.76000       16.57700       -0.00000
H         -0.29100       17.67500       -0.00000
