
 OpenBabel11042013043D

 36 37  0  0  1  0  0  0  0  0999 V2000
    1.1580   -0.7260    0.0020 O   0  0  0  0  0  0  0  0  0  0  0  0
   -0.0230   -0.0730    0.0030 C   0  0  0  0  0  0  0  0  0  0  0  0
   -1.0830   -0.6830    0.0010 O   0  0  0  0  0  0  0  0  0  0  0  0
    0.0600    1.4150    0.0030 C   0  0  2  0  0  0  0  0  0  0  0  0
    1.9620   -0.1840    0.0010 H   0  0  0  0  0  0  0  0  0  0  0  0
   -1.1040    2.1000    0.0040 C   0  0  0  0  0  0  0  0  0  0  0  0
   -1.1120    3.4470    0.0030 C   0  0  0  0  0  0  0  0  0  0  0  0
    0.0440    4.1550    0.0010 C   0  0  1  0  0  0  0  0  0  0  0  0
    1.2020    3.4380   -0.0030 C   0  0  0  0  0  0  0  0  0  0  0  0
    1.2150    2.1050   -0.0010 C   0  0  0  0  0  0  0  0  0  0  0  0
    0.0850    5.6310   -0.0020 C   0  0  1  0  0  0  0  0  0  0  0  0
   -2.0850    3.9300    0.0040 H   0  0  0  0  0  0  0  0  0  0  0  0
   -2.0590    1.5780    0.0050 H   0  0  0  0  0  0  0  0  0  0  0  0
    2.2010    1.6580   -0.0020 H   0  0  0  0  0  0  0  0  0  0  0  0
    2.1780    3.9040   -0.0070 H   0  0  0  0  0  0  0  0  0  0  0  0
   -1.0300    6.4090   -0.0040 C   0  0  0  0  0  0  0  0  0  0  0  0
   -0.9420    7.7520   -0.0080 C   0  0  0  0  0  0  0  0  0  0  0  0
    0.2680    8.3470   -0.0100 C   0  0  1  0  0  0  0  0  0  0  0  0
    1.3730    7.5950   -0.0060 C   0  0  0  0  0  0  0  0  0  0  0  0
    1.2820    6.2680   -0.0020 C   0  0  0  0  0  0  0  0  0  0  0  0
    0.5210    9.6690   -0.0160 N   0  0  0  0  0  0  0  0  0  0  0  0
   -1.8550    8.3430   -0.0100 H   0  0  0  0  0  0  0  0  0  0  0  0
   -2.0320    5.9920   -0.0040 H   0  0  0  0  0  0  0  0  0  0  0  0
    2.2400    5.7730    0.0010 H   0  0  0  0  0  0  0  0  0  0  0  0
    2.3510    8.0690   -0.0060 H   0  0  0  0  0  0  0  0  0  0  0  0
   -0.4150   10.4570    0.0060 N   0  0  0  0  0  0  0  0  0  0  0  0
    0.1950   11.6670    0.0060 N   0  0  0  0  0  0  0  0  0  0  0  0
   -0.6610   12.5430    0.0000 N   0  0  0  0  0  0  0  0  0  0  0  0
   -0.1050   13.7750   -0.0000 C   0  0  0  0  0  0  0  0  0  0  0  0
   -0.9130   14.8290   -0.0000 C   0  0  0  0  0  0  0  0  0  0  0  0
   -0.3390   16.1550   -0.0000 C   0  0  0  0  0  0  0  0  0  0  0  0
   -1.9870   14.6970   -0.0000 H   0  0  0  0  0  0  0  0  0  0  0  0
    0.9830   13.8590   -0.0000 H   0  0  0  0  0  0  0  0  0  0  0  0
   -1.3310   17.0480   -0.0000 O   0  0  0  0  0  0  0  0  0  0  0  0
    0.8380   16.4520   -0.0000 O   0  0  0  0  0  0  0  0  0  0  0  0
   -0.8660   17.9070    0.0000 H   0  0  0  0  0  0  0  0  0  0  0  0
  1  5  1  0  0  0  0
  2  1  1  0  0  0  0
  3  2  2  0  0  0  0
  4  2  1  6  0  0  0
  4 10  5  0  0  0  0
  6  4  5  0  0  0  0
  6  7  5  0  0  0  0
  6 13  1  0  0  0  0
  7 12  1  0  0  0  0
  8  7  5  6  0  0  0
  8 11  1  0  0  0  0
  9  8  5  0  0  0  0
  9 15  1  0  0  0  0
 10  9  5  0  0  0  0
 10 14  1  0  0  0  0
 11 16  5  1  0  0  0
 11 20  5  0  0  0  0
 16 17  5  0  0  0  0
 16 23  1  0  0  0  0
 17 22  1  0  0  0  0
 18 17  5  0  0  0  0
 18 21  1  6  0  0  0
 19 18  5  0  0  0  0
 19 25  1  0  0  0  0
 20 19  5  0  0  0  0
 20 24  1  0  0  0  0
 26 21  2  0  0  0  0
 27 26  1  0  0  0  0
 28 27  2  0  0  0  0
 29 28  1  0  0  0  0
 29 33  1  0  0  0  0
 30 29  2  0  0  0  0
 30 32  1  0  0  0  0
 31 30  1  0  0  0  0
 31 35  2  0  0  0  0
 34 31  1  0  0  0  0
 36 34  1  0  0  0  0
M  END
