30

O          1.76600       -0.20900       -0.10500
C          0.52800        0.20800        0.25000
O         -0.31500       -0.61100        0.58100
C          0.29400        1.68600        0.17600
H          2.43300        0.49000       -0.24100
C         -0.93300        2.23700        0.01100
C         -1.09100        3.59500       -0.06200
C         -0.02700        4.45700        0.07200
C          1.18200        3.85300        0.24400
C          1.33800        2.52300        0.28300
C         -0.07800        5.98600        0.05500
N         -2.42500        4.07900       -0.30800
Cl        -2.36200        1.22200       -0.17300
F          2.59500        2.04700        0.42900
H          2.10100        4.41500        0.36400
H         -2.47400        4.74700       -1.07400
H         -3.10700        3.33600       -0.46300
C         -1.22500        6.70300        0.20700
C         -1.27100        8.04900        0.16100
C         -0.14000        8.75700        0.00500
C          1.02600        8.09600       -0.10200
C          1.04600        6.74700       -0.09400
C         -0.12500       10.24500       -0.03400
H         -2.23400        8.54800        0.26100
H         -2.18400        6.22700        0.38500
H          2.03300        6.31100       -0.20500
H          1.96100        8.64500       -0.20000
O         -1.35300       10.79400       -0.00800
O          0.86600       10.94800       -0.09700
H         -1.17700       11.75600       -0.04600
