39

O          0.76700        0.17900       -0.17200
C         -0.15300        1.10800       -0.11900
O         -1.30900        0.77400       -0.10400
C          0.21400        2.71700       -0.09000
H          1.75700        0.36900       -0.09300
C         -0.92800        3.39000       -0.02900
C         -0.90900        4.74400       -0.02400
C          0.24100        5.44400       -0.01600
C          1.42000        4.70100        0.04300
C          1.40900        3.29200       -0.08000
C          0.25500        6.98400        0.00300
H         -1.87900        5.24400       -0.03300
H         -1.90800        2.90800        0.02300
C          2.71900        2.50600        0.04100
C          2.76600        5.48200        0.03800
C         -0.61600        8.02300       -0.13900
C         -0.23700        9.52500        0.20000
H         -1.67200        7.81800       -0.30900
H          1.22500        7.39500        0.23700
C          1.21100       10.15300       -0.07200
C          1.05100       11.72700       -0.27400
N         -0.36300       11.77600        0.17400
N         -0.99700       10.60700       -0.44500
C          1.47300       13.36200       -0.26200
H         -1.98000       10.57000       -0.16600
H         -0.77400       12.68000       -0.09900
H          1.92600        9.92700        0.74300
H          1.85700       11.77600        0.48100
H          1.60500        9.66300       -0.96200
H         -0.52300        9.59800        1.26400
H          3.22100        1.67900       -0.51800
H          3.54900        3.14300        0.34100
H          2.41200        1.88600        0.86700
H          2.63000        6.47300       -0.36500
H          3.75600        5.58800        0.54300
H          3.23400        4.84300       -0.67900
O          0.34400       14.12500       -0.14500
O          2.59400       13.86300       -0.26300
H          0.63300       15.06000        0.00300
