
 OpenBabel11042013043D

 23 23  0  0  1  0  0  0  0  0999 V2000
    2.5320    1.5700    0.1660 O   0  0  0  0  0  0  0  0  0  0  0  0
    1.7460    2.0770   -0.8020 C   0  0  0  0  0  0  0  0  0  0  0  0
    1.4290    1.4260   -1.7800 O   0  0  0  0  0  0  0  0  0  0  0  0
    1.3210    3.4480   -0.4940 C   0  0  1  0  0  0  0  0  0  0  0  0
    2.7540    0.6710   -0.1550 H   0  0  0  0  0  0  0  0  0  0  0  0
    0.0400    3.7550   -0.2080 C   0  0  2  0  0  0  0  0  0  0  0  0
   -0.2810    5.0420    0.0860 C   0  0  2  0  0  0  0  0  0  0  0  0
    0.6860    5.9920    0.0590 C   0  0  1  0  0  0  0  0  0  0  0  0
    1.9790    5.6850   -0.2280 C   0  0  2  0  0  0  0  0  0  0  0  0
    2.2720    4.3930   -0.5020 C   0  0  2  0  0  0  0  0  0  0  0  0
    0.3430    7.4080    0.3240 C   0  0  0  0  0  0  0  0  0  0  0  0
   -1.6380    5.3700    0.4350 N   0  0  0  0  0  0  0  0  0  0  0  0
   -1.1880    2.5110   -0.1660 Cl  0  0  0  0  0  0  0  0  0  0  0  0
    3.5480    4.0580   -0.8020 F   0  0  0  0  0  0  0  0  0  0  0  0
    3.0910    6.7090   -0.2490 C   0  0  0  0  0  0  0  0  0  0  0  0
   -1.7300    5.9300    1.2800 H   0  0  0  0  0  0  0  0  0  0  0  0
   -2.2580    4.5630    0.4860 H   0  0  0  0  0  0  0  0  0  0  0  0
    3.0210    7.3380   -1.1440 H   0  0  0  0  0  0  0  0  0  0  0  0
    4.0830    6.2410   -0.2530 H   0  0  0  0  0  0  0  0  0  0  0  0
    3.0700    7.3470    0.6410 H   0  0  0  0  0  0  0  0  0  0  0  0
   -0.3460    7.9570   -0.6930 O   0  0  0  0  0  0  0  0  0  0  0  0
    0.6600    8.0520    1.3080 O   0  0  0  0  0  0  0  0  0  0  0  0
   -0.5500    8.8670   -0.3930 H   0  0  0  0  0  0  0  0  0  0  0  0
  1  5  1  0  0  0  0
  2  1  1  0  0  0  0
  3  2  2  0  0  0  0
  4  2  1  1  0  0  0
  4 10  5  0  0  0  0
  6  4  5  0  0  0  0
  6  7  5  0  0  0  0
  6 13  1  1  0  0  0
  7 12  1  1  0  0  0
  8  7  5  0  0  0  0
  8 11  1  6  0  0  0
  9  8  5  0  0  0  0
  9 15  1  1  0  0  0
 10  9  5  0  0  0  0
 10 14  1  6  0  0  0
 11 22  2  0  0  0  0
 12 16  1  0  0  0  0
 12 17  1  0  0  0  0
 15 18  1  0  0  0  0
 15 19  1  0  0  0  0
 15 20  1  0  0  0  0
 21 11  1  0  0  0  0
 23 21  1  0  0  0  0
M  END
