32

O          1.02300        0.32500       -0.20300
C         -0.07300        1.09100       -0.21100
O         -1.18700        0.57500       -0.21100
C          0.13900        2.58800       -0.18500
H          1.87200        0.80400       -0.21600
C         -1.01200        3.28300       -0.08600
C         -1.05900        4.63200       -0.00400
C          0.10900        5.35700       -0.02300
C          1.25800        4.64600       -0.15300
C          1.29200        3.28800       -0.23100
C          0.16800        6.89000        0.19200
C         -2.45800        5.19800        0.14400
H         -1.95500        2.73200       -0.04500
Cl         2.85300        2.53500       -0.34500
F          2.44000        5.30800       -0.15500
C          1.38600        7.78500       -0.15900
C          0.81000        9.15300        0.18800
N         -0.55700        9.06200       -0.35500
N         -0.90200        7.67100       -0.45500
C          1.40700       10.47900       -0.27600
H         -1.79200        7.50000       -0.00100
H         -1.18000        9.62500        0.23400
H          2.26400        7.56500        0.45900
H          0.77300        9.22700        1.28400
H          1.67900        7.70700       -1.21600
H          0.02400        6.99200        1.28000
H         -3.23300        4.43000        0.02700
H         -2.59600        5.63400        1.13900
H         -2.69400        5.92200       -0.63900
O          0.52400       11.50000       -0.06100
O          2.53600       10.71100       -0.66800
H          0.96900       12.31900       -0.35400
