20

O          1.30900        0.37000       -0.10700
C          0.08700        0.94300       -0.15000
O         -0.90700        0.24300       -0.23500
C          0.05600        2.44100       -0.06400
H          2.09800        0.92000        0.00500
C         -1.15600        3.03600        0.00800
C         -1.27000        4.37500        0.13400
C         -0.16700        5.17000        0.20800
C          1.05300        4.57100        0.09900
C          1.15300        3.22900       -0.04600
N         -0.28800        6.52000        0.46900
Cl        -2.86600        5.06500        0.22200
F         -2.28600        2.29600       -0.02300
H          2.15000        2.81700       -0.12800
Br         2.66800        5.55700        0.17700
N         -0.12100        7.29400       -0.50200
C         -0.16600        8.59700       -0.07200
O         -1.42300        9.10100       -0.11000
O          0.76700        9.30100        0.28700
H         -1.29800       10.01300        0.21300
