30

O          0.89100        0.83400       -1.37900
C          0.27000        1.23300       -0.26200
O         -0.14600        0.44200        0.57100
C          0.14500        2.71000       -0.18500
H          0.87900       -0.14300       -1.31000
C         -1.08300        3.23300       -0.45800
C         -1.29700        4.57200       -0.30000
C         -0.20600        5.35000       -0.04100
C          1.02600        4.82600        0.14800
C          1.22000        3.47300        0.15100
C         -0.34500        6.82900        0.05600
C         -2.69600        5.22200       -0.36900
Br        -2.46700        2.09000       -1.12300
C          2.60100        2.91600        0.54600
Cl         2.41100        5.89700        0.35600
C         -3.83200        4.53800        0.39900
H         -3.46600        3.93300        1.23400
H         -4.51600        5.28900        0.80900
H         -4.43800        3.91400       -0.26300
H         -2.98200        5.38000       -1.41600
H         -2.66100        6.21700        0.08600
C          2.72700        1.55200        1.22300
H          1.94400        1.39400        1.97100
H          3.69000        1.48300        1.74100
H          2.71300        0.73600        0.49500
H          3.03800        3.59100        1.29500
H          3.26400        2.94400       -0.32900
O         -0.82000        7.37600       -1.07900
O         -0.09600        7.51900        1.03200
H         -0.89100        8.33000       -0.86200
