
 OpenBabel11042013043D

 30 30  0  0  1  0  0  0  0  0999 V2000
    0.8910    0.8340   -1.3790 O   0  0  0  0  0  0  0  0  0  0  0  0
    0.2700    1.2330   -0.2620 C   0  0  0  0  0  0  0  0  0  0  0  0
   -0.1460    0.4420    0.5710 O   0  0  0  0  0  0  0  0  0  0  0  0
    0.1450    2.7100   -0.1850 C   0  0  1  0  0  0  0  0  0  0  0  0
    0.8790   -0.1430   -1.3100 H   0  0  0  0  0  0  0  0  0  0  0  0
   -1.0830    3.2330   -0.4580 C   0  0  1  0  0  0  0  0  0  0  0  0
   -1.2970    4.5720   -0.3000 C   0  0  2  0  0  0  0  0  0  0  0  0
   -0.2060    5.3500   -0.0410 C   0  0  2  0  0  0  0  0  0  0  0  0
    1.0260    4.8260    0.1480 C   0  0  1  0  0  0  0  0  0  0  0  0
    1.2200    3.4730    0.1510 C   0  0  1  0  0  0  0  0  0  0  0  0
   -0.3450    6.8290    0.0560 C   0  0  0  0  0  0  0  0  0  0  0  0
   -2.6960    5.2220   -0.3690 C   0  0  0  0  0  0  0  0  0  0  0  0
   -2.4670    2.0900   -1.1230 Br  0  0  0  0  0  0  0  0  0  0  0  0
    2.6010    2.9160    0.5460 C   0  0  0  0  0  0  0  0  0  0  0  0
    2.4110    5.8970    0.3560 Cl  0  0  0  0  0  0  0  0  0  0  0  0
   -3.8320    4.5380    0.3990 C   0  0  0  0  0  0  0  0  0  0  0  0
   -3.4660    3.9330    1.2340 H   0  0  0  0  0  0  0  0  0  0  0  0
   -4.5160    5.2890    0.8090 H   0  0  0  0  0  0  0  0  0  0  0  0
   -4.4380    3.9140   -0.2630 H   0  0  0  0  0  0  0  0  0  0  0  0
   -2.9820    5.3800   -1.4160 H   0  0  0  0  0  0  0  0  0  0  0  0
   -2.6610    6.2170    0.0860 H   0  0  0  0  0  0  0  0  0  0  0  0
    2.7270    1.5520    1.2230 C   0  0  0  0  0  0  0  0  0  0  0  0
    1.9440    1.3940    1.9710 H   0  0  0  0  0  0  0  0  0  0  0  0
    3.6900    1.4830    1.7410 H   0  0  0  0  0  0  0  0  0  0  0  0
    2.7130    0.7360    0.4950 H   0  0  0  0  0  0  0  0  0  0  0  0
    3.0380    3.5910    1.2950 H   0  0  0  0  0  0  0  0  0  0  0  0
    3.2640    2.9440   -0.3290 H   0  0  0  0  0  0  0  0  0  0  0  0
   -0.8200    7.3760   -1.0790 O   0  0  0  0  0  0  0  0  0  0  0  0
   -0.0960    7.5190    1.0320 O   0  0  0  0  0  0  0  0  0  0  0  0
   -0.8910    8.3300   -0.8620 H   0  0  0  0  0  0  0  0  0  0  0  0
  1  5  1  0  0  0  0
  2  1  1  0  0  0  0
  3  2  2  0  0  0  0
  4  2  1  1  0  0  0
  4 10  5  0  0  0  0
  6  4  5  0  0  0  0
  6  7  5  0  0  0  0
  6 13  1  6  0  0  0
  7 12  1  1  0  0  0
  8  7  5  0  0  0  0
  8 11  1  1  0  0  0
  9  8  5  0  0  0  0
  9 15  1  6  0  0  0
 10  9  5  0  0  0  0
 10 14  1  1  0  0  0
 11 29  2  0  0  0  0
 12 20  1  0  0  0  0
 12 21  1  0  0  0  0
 14 26  1  0  0  0  0
 14 27  1  0  0  0  0
 16 17  1  0  0  0  0
 16 18  1  0  0  0  0
 16 19  1  0  0  0  0
 16 12  1  0  0  0  0
 22 23  1  0  0  0  0
 22 24  1  0  0  0  0
 22 25  1  0  0  0  0
 22 14  1  0  0  0  0
 28 11  1  0  0  0  0
 30 28  1  0  0  0  0
M  END
