37

O          0.66300        0.09600       -1.15500
C         -0.13200        0.69500       -0.24400
O         -1.00700        0.08500        0.35500
C          0.04400        2.17700       -0.15300
H          1.30300        0.69900       -1.57200
C         -1.16500        2.76400       -0.28300
C         -1.28800        4.09400       -0.19300
C         -0.20800        4.85600       -0.01000
C          1.03200        4.30200        0.05900
C          1.17100        2.92100        0.03300
C         -0.41800        6.25900        0.07400
H         -2.28400        4.53600       -0.26800
H         -2.07200        2.18100       -0.45100
C          2.60300        2.42100        0.28700
C          2.25700        5.22100        0.14100
C         -0.56300        7.44600       -0.00600
C         -0.65900        8.84000       -0.39100
C          0.57400        9.64900       -0.12700
N         -0.06200       10.91400        0.10300
N         -1.36000       10.76700        0.50500
N         -1.68300        9.54800        0.39700
C          0.54400       12.12600       -0.05300
H          1.11400        9.37000        0.78600
H          1.27200        9.67600       -0.96900
H         -0.94100        8.89700       -1.44700
H          2.97500        4.97100       -0.64900
H          2.74600        5.15500        1.11700
H          2.03100        6.27800       -0.02700
C          2.99000        0.97200        0.54200
H          3.61800        0.60600       -0.27800
H          3.60200        0.91200        1.45000
H          2.15800        0.29000        0.69100
H          2.94900        2.94400        1.19100
H          3.24000        2.77600       -0.53500
O         -0.28400       13.17800        0.09500
O          1.71600       12.31100       -0.34600
H          0.28800       13.95000       -0.08400
