33

O          1.56800       -0.39900        0.12800
C          0.41600        0.28700        0.06100
O         -0.63700       -0.33600       -0.02500
C          0.44500        1.80300        0.04900
H          2.45000        0.01100        0.21300
C         -0.78700        2.33200        0.14400
C         -1.01500        3.65100        0.04800
C          0.00500        4.54500       -0.17800
C          1.26500        4.01300       -0.19100
C          1.48000        2.66300       -0.07600
C         -0.27000        6.06600       -0.47200
N         -2.40900        3.95400        0.14900
H         -1.65500        1.68200        0.28200
C          2.80800        2.14100       -0.10600
C          2.42200        4.85100       -0.37700
N          3.80200        1.54600       -0.07400
H         -2.61100        4.67500        0.84100
H         -2.77900        4.32900       -0.72100
N          3.41300        5.43700       -0.52400
O          0.79400        6.99500       -0.13600
C         -1.24400        8.14400        0.12600
C         -1.50700        6.67900        0.16500
C          0.72200        9.63400       -0.08900
H         -2.42300        6.45100       -0.38200
H         -1.51000        8.54300       -0.86100
H         -1.82100        8.68700        0.88000
H         -1.59900        6.37600        1.21300
H          0.45600        8.20500        1.44600
C          0.24800        8.22800        0.37000
H         -0.36700        6.13200       -1.56500
O         -0.23800       10.58000        0.11000
O          1.81200        9.96400       -0.52000
H          0.14900       11.43000       -0.18700
