
 OpenBabel04212111313D

 54 57  0  0  1  0  0  0  0  0999 V2000
    2.3700    0.2690   -0.9070 O   0  0  0  0  0  0  0  0  0  0  0  0
    1.3320    1.1100   -1.1000 C   0  0  0  0  0  0  0  0  0  0  0  0
    0.6060    0.9440   -2.0680 O   0  0  0  0  0  0  0  0  0  0  0  0
    1.0650    2.2020   -0.1320 C   0  0  0  0  0  0  0  0  0  0  0  0
    2.9550    0.3490   -0.1410 H   0  0  0  0  0  0  0  0  0  0  0  0
    0.0090    3.0230   -0.2510 C   0  0  0  0  0  0  0  0  0  0  0  0
   -0.2780    4.0790    0.7850 C   0  0  1  0  0  0  0  0  0  0  0  0
   -0.6820    2.8960   -1.0810 H   0  0  0  0  0  0  0  0  0  0  0  0
    1.7360    2.3170    0.7150 H   0  0  0  0  0  0  0  0  0  0  0  0
    0.7240    5.0860    0.8640 O   0  0  0  0  0  0  0  0  0  0  0  0
   -1.4070    5.9250    1.4580 C   0  0  0  0  0  0  0  0  0  0  0  0
   -1.5940    4.7880    0.5180 C   0  0  0  0  0  0  0  0  0  0  0  0
    0.2230    7.2720   -0.1540 C   0  0  1  0  0  0  0  0  0  0  0  0
   -2.4930    4.1660    0.7160 H   0  0  0  0  0  0  0  0  0  0  0  0
   -2.1770    6.7210    1.4360 H   0  0  0  0  0  0  0  0  0  0  0  0
   -1.4290    5.5180    2.4970 H   0  0  0  0  0  0  0  0  0  0  0  0
   -1.6300    5.1750   -0.5270 H   0  0  0  0  0  0  0  0  0  0  0  0
    0.4480    6.8230    2.0190 H   0  0  0  0  0  0  0  0  0  0  0  0
    0.0400    6.3160    1.1150 C   0  0  2  0  0  0  0  0  0  0  0  0
   -0.3400    3.5760    1.7790 H   0  0  0  0  0  0  0  0  0  0  0  0
   -0.6100    8.2270   -0.2310 C   0  0  0  0  0  0  0  0  0  0  0  0
   -0.3600    9.1650    0.5730 C   0  0  0  0  0  0  0  0  0  0  0  0
    0.8270    9.6090    0.4670 C   0  0  1  0  0  0  0  0  0  0  0  0
    1.6900    8.6690    0.4990 C   0  0  0  0  0  0  0  0  0  0  0  0
    1.4180    7.6950   -0.2720 C   0  0  0  0  0  0  0  0  0  0  0  0
    1.0420   10.6120   -0.7430 C   0  0  2  0  0  0  0  0  0  0  0  0
   -1.1400    9.9550    0.5700 H   0  0  0  0  0  0  0  0  0  0  0  0
   -1.6700    7.9080   -0.2380 H   0  0  0  0  0  0  0  0  0  0  0  0
    2.1740    6.8800   -0.2000 H   0  0  0  0  0  0  0  0  0  0  0  0
    2.7360    9.0320    0.3710 H   0  0  0  0  0  0  0  0  0  0  0  0
    2.3120   11.2530   -0.6720 O   0  0  0  0  0  0  0  0  0  0  0  0
    0.7360   12.6540   -1.7520 C   0  0  0  0  0  0  0  0  0  0  0  0
    0.0130   11.7440   -0.8180 C   0  0  0  0  0  0  0  0  0  0  0  0
    2.2480   13.5070   -0.0300 N   0  0  0  0  0  0  0  0  0  0  0  0
   -0.9920   11.4400   -1.1800 H   0  0  0  0  0  0  0  0  0  0  0  0
    0.7570   12.1760   -2.7590 H   0  0  0  0  0  0  0  0  0  0  0  0
    0.3080   13.6740   -1.8590 H   0  0  0  0  0  0  0  0  0  0  0  0
   -0.0830   12.2360    0.1780 H   0  0  0  0  0  0  0  0  0  0  0  0
    2.8920   12.8470   -1.9060 H   0  0  0  0  0  0  0  0  0  0  0  0
    2.1300   12.5840   -1.1410 C   0  0  1  0  0  0  0  0  0  0  0  0
    1.0030   10.0490   -1.7070 H   0  0  0  0  0  0  0  0  0  0  0  0
    2.1120   14.7340   -0.2190 N   0  0  0  0  0  0  0  0  0  0  0  0
    2.2160   15.6880    0.8600 C   0  0  1  0  0  0  0  0  0  0  0  0
    3.2660   16.7740    0.5300 C   0  0  0  0  0  0  0  0  0  0  0  0
    2.4420   17.9510    0.4530 N   0  0  0  0  0  0  0  0  0  0  0  0
    1.1440   17.6430    0.7230 N   0  0  0  0  0  0  0  0  0  0  0  0
    0.9790   16.4350    0.9550 N   0  0  0  0  0  0  0  0  0  0  0  0
    2.8770   19.2080    0.1640 C   0  0  0  0  0  0  0  0  0  0  0  0
    3.7760   16.5900   -0.4410 H   0  0  0  0  0  0  0  0  0  0  0  0
    4.0050   16.8910    1.3530 H   0  0  0  0  0  0  0  0  0  0  0  0
    2.4380   15.1890    1.8310 H   0  0  0  0  0  0  0  0  0  0  0  0
    2.0160   20.2490    0.1160 O   0  0  0  0  0  0  0  0  0  0  0  0
    4.0610   19.4090   -0.0620 O   0  0  0  0  0  0  0  0  0  0  0  0
    1.0680   20.1490    0.2800 H   0  0  0  0  0  0  0  0  0  0  0  0
  1  5  1  0  0  0  0
  2  1  1  0  0  0  0
  3  2  2  0  0  0  0
  4  2  1  0  0  0  0
  4  9  1  0  0  0  0
  6  4  2  0  0  0  0
  6  8  1  0  0  0  0
  7  6  1  0  0  0  0
  7 12  1  0  0  0  0
  7 20  1  1  0  0  0
 10  7  1  0  0  0  0
 11 19  1  0  0  0  0
 11 16  1  0  0  0  0
 12 11  1  0  0  0  0
 12 17  1  0  0  0  0
 13 19  1  0  0  0  0
 13 21  5  1  0  0  0
 13 25  5  0  0  0  0
 14 12  1  0  0  0  0
 15 11  1  0  0  0  0
 19 10  1  0  0  0  0
 19 18  1  1  0  0  0
 21 22  5  0  0  0  0
 21 28  1  0  0  0  0
 22 27  1  0  0  0  0
 23 22  5  6  0  0  0
 23 26  1  0  0  0  0
 24 23  5  0  0  0  0
 24 30  1  0  0  0  0
 25 24  5  0  0  0  0
 25 29  1  0  0  0  0
 26 33  1  0  0  0  0
 26 41  1  6  0  0  0
 31 26  1  0  0  0  0
 32 40  1  0  0  0  0
 32 37  1  0  0  0  0
 33 32  1  0  0  0  0
 33 38  1  0  0  0  0
 34 40  1  0  0  0  0
 35 33  1  0  0  0  0
 36 32  1  0  0  0  0
 40 31  1  0  0  0  0
 40 39  1  6  0  0  0
 42 34  2  0  0  0  0
 43 42  1  0  0  0  0
 43 47  1  0  0  0  0
 43 51  1  1  0  0  0
 44 43  1  0  0  0  0
 44 49  1  0  0  0  0
 44 50  1  0  0  0  0
 45 44  1  0  0  0  0
 46 45  1  0  0  0  0
 47 46  2  0  0  0  0
 48 45  1  0  0  0  0
 48 53  2  0  0  0  0
 52 48  1  0  0  0  0
 54 52  1  0  0  0  0
M  END
