35

O          1.47700        0.11300        0.00000
C          0.31200        0.77500        0.00000
O         -0.76600        0.19700        0.00000
C          0.45700        2.24500       -0.00000
H          2.25300        0.69200        0.00000
C         -0.75400        2.80100       -0.00000
C         -0.82700        4.11200       -0.00000
C          0.29600        4.89400       -0.00000
C          1.57900        4.36700       -0.00000
C          1.57800        3.00500       -0.00000
C         -0.09500        6.30000       -0.00000
H         -1.85400        4.46700       -0.00000
H         -1.69900        2.26200        0.00000
H          2.54900        2.53900       -0.00000
C          3.05600        5.05500       -0.00000
C         -1.34500        6.80800       -0.00000
C         -1.45200        8.12000        0.00000
C         -0.35500        8.92600       -0.00000
C          0.86800        8.43400        0.00000
C          0.93100        7.12700       -0.00000
N         -0.45500       10.21500        0.00000
H         -2.46400        8.53200        0.00000
H         -2.27700        6.26500        0.00000
H          1.91000        6.82800       -0.00000
H          1.78600        8.99700       -0.00000
H          3.26400        6.12400        0.00000
H          4.17100        5.10100       -0.00000
H          3.57000        4.10300        0.00000
N         -1.61400       10.64100       -0.00000
C         -1.34100       11.90700       -0.00000
C         -0.72500       12.91100        0.00000
C         -0.38300       14.23800        0.00000
O         -1.54200       14.89600        0.00000
O          0.74400       14.68400       -0.00000
H         -1.32400       15.83400       -0.00000
