30

O          1.56400       -0.06200        0.05200
C          0.36800        0.56400        0.13500
O         -0.65000       -0.10300        0.21800
C          0.38800        2.07600        0.10400
H          2.37200        0.46700       -0.00500
C         -0.77800        2.79900        0.04800
C         -0.68000        4.15300        0.04000
C          0.49400        4.80600       -0.00100
C          1.62000        4.07500        0.02500
C          1.57100        2.73900        0.11000
N          0.63000        6.16200       -0.07700
H         -1.57400        4.76900        0.03500
C         -2.17700        2.17800       -0.07500
H          2.54200        2.26600        0.16300
H          2.57600        4.58800       -0.01700
C         -3.36400        3.15100       -0.13800
H         -3.24200        3.88000       -0.94800
H         -3.47700        3.69400        0.80800
H         -4.29800        2.61700       -0.33200
H         -2.19500        1.61200       -1.01600
H         -2.37300        1.48400        0.75000
N         -0.23800        6.84400        0.49200
N          0.24400        8.12800        0.61100
N         -0.19100        8.82800       -0.31500
N          0.29900       10.10800       -0.16400
N         -0.67600       10.86300       -0.03400
C         -0.30000       12.17400        0.05500
O         -1.38500       12.96700        0.07700
O          0.81600       12.66900        0.10000
H         -1.00200       13.86000        0.12100
