44

O          1.12200        0.88900        0.22300
C          0.01800        1.66400        0.23400
O         -1.09700        1.15700        0.26800
C          0.25000        3.14900        0.17100
H          1.97300        1.34800        0.18100
C         -0.87300        3.89600        0.14700
C         -0.81100        5.23400        0.02000
C          0.36700        5.89600       -0.09600
C          1.49200        5.14200       -0.01700
C          1.43900        3.79300        0.11000
C          0.38600        7.40400       -0.40900
H         -1.75900        5.76200       -0.02900
H         -1.85600        3.42800        0.20100
H          2.38200        3.26100        0.13100
H          2.46900        5.61200       -0.10000
C          1.48500        8.36300        0.07200
C          0.92700        9.70800       -0.42300
N         -0.53700        9.55100       -0.29900
N         -0.79700        8.15900        0.04600
N          1.39500       10.89800        0.32300
H         -1.62700        7.82800       -0.45000
H         -0.83200       10.16700        0.46300
H          2.45600        8.14400       -0.38500
H          1.17000        9.81100       -1.49000
H          1.60200        8.34100        1.16300
H          0.39000        7.43400       -1.51100
N          1.42300       11.92800       -0.40800
C          1.20200       13.19100        0.32000
C          2.18500       14.29600       -0.05200
C          1.48400       15.50500        0.55300
N          0.04900       15.25400        0.31600
N         -0.06900       13.84100       -0.04500
C          1.87600       16.83900        0.07700
H         -0.84200       13.38100        0.43800
H         -0.25900       15.83300       -0.47400
H          3.17500       14.13000        0.38400
H          1.63800       15.48400        1.64000
H          2.30400       14.38800       -1.14000
H          1.22400       13.02500        1.40700
C          2.07000       18.00400       -0.15000
C          2.20700       19.43200       -0.29400
O          1.03600       20.09600       -0.25400
O          3.27700       20.00400       -0.39800
H          1.29300       21.03900       -0.31300
