39

O          1.36600       -0.15800        0.17000
C          0.17700        0.47100        0.26800
O         -0.86600       -0.16800        0.31400
C          0.22000        1.97000        0.25400
H          2.15800        0.39100        0.06400
C         -0.98000        2.58400        0.21300
C         -1.05800        3.92000        0.09700
C          0.04900        4.70300        0.00800
C          1.25100        4.08400        0.12900
C          1.33000        2.73800        0.25100
C         -0.22300        6.15900       -0.33800
H         -2.05200        4.36500        0.03100
H         -1.90600        2.01100        0.23600
H          2.31800        2.29800        0.31700
Cl         2.76700        4.92800        0.07500
C          0.81000        7.25000       -0.53100
N         -0.12000        8.35700       -0.48500
N         -1.09800        8.08400        0.44500
N         -1.13100        6.83400        0.62200
C          0.36400        9.72000       -0.51000
H          1.51500        7.33200        0.30400
H          1.34000        7.17400       -1.48400
H         -0.78100        6.10300       -1.28900
C          0.61100       10.88200       -0.36900
C          0.64400       12.23000        0.18700
C          1.85700       13.09600       -0.05800
C          1.34900       14.42800        0.49800
N         -0.13800       14.35900        0.36600
N         -0.40400       13.11100       -0.32800
C          1.89300       15.68400       -0.16700
H         -1.32500       12.72800       -0.10400
H         -0.46200       15.18700       -0.15400
H          2.12400       13.16700       -1.12300
H          1.58700       14.50000        1.56600
H          2.73600       12.73100        0.48400
H          0.50700       12.10500        1.27000
O          0.96800       16.67400       -0.25100
O          3.04500       15.88800       -0.51300
H          1.46100       17.45400       -0.57900
