
 OpenBabel11042013043D

 38 39  0  0  1  0  0  0  0  0999 V2000
    1.0190    0.7010    0.6260 O   0  0  0  0  0  0  0  0  0  0  0  0
    0.0900    1.4040   -0.0510 C   0  0  0  0  0  0  0  0  0  0  0  0
   -0.7850    0.8360   -0.6960 O   0  0  0  0  0  0  0  0  0  0  0  0
    0.2000    2.9020    0.0460 C   0  0  2  0  0  0  0  0  0  0  0  0
    1.5490    1.2390    1.2370 H   0  0  0  0  0  0  0  0  0  0  0  0
   -0.9620    3.5960    0.1410 C   0  0  1  0  0  0  0  0  0  0  0  0
   -0.9480    4.9430    0.0860 C   0  0  0  0  0  0  0  0  0  0  0  0
    0.1970    5.6450   -0.0740 C   0  0  1  0  0  0  0  0  0  0  0  0
    1.3510    4.9390   -0.0830 C   0  0  0  0  0  0  0  0  0  0  0  0
    1.3830    3.5840   -0.0240 C   0  0  2  0  0  0  0  0  0  0  0  0
    0.1450    7.1450   -0.3520 C   0  0  2  0  0  0  0  0  0  0  0  0
   -1.8980    5.4680    0.1210 H   0  0  0  0  0  0  0  0  0  0  0  0
   -2.2430    2.9770    0.2620 N   0  0  0  0  0  0  0  0  0  0  0  0
    2.7380    2.9220   -0.1410 C   0  0  0  0  0  0  0  0  0  0  0  0
    2.2890    5.4810   -0.2000 H   0  0  0  0  0  0  0  0  0  0  0  0
    1.2680    8.1020    0.0590 C   0  0  0  0  0  0  0  0  0  0  0  0
    0.6420    9.4260   -0.3930 C   0  0  1  0  0  0  0  0  0  0  0  0
   -0.7790    9.2840   -0.0160 N   0  0  0  0  0  0  0  0  0  0  0  0
   -1.0230    7.8620    0.1940 N   0  0  0  0  0  0  0  0  0  0  0  0
    1.2480   10.7350    0.0310 C   0  0  0  0  0  0  0  0  0  0  0  0
   -1.8650    7.5750   -0.3110 H   0  0  0  0  0  0  0  0  0  0  0  0
   -0.9350    9.7750    0.8710 H   0  0  0  0  0  0  0  0  0  0  0  0
    2.2040    7.9000   -0.4730 H   0  0  0  0  0  0  0  0  0  0  0  0
    0.6910    9.4360   -1.4920 H   0  0  0  0  0  0  0  0  0  0  0  0
    1.4630    8.0800    1.1390 H   0  0  0  0  0  0  0  0  0  0  0  0
    0.0660    7.1970   -1.4510 H   0  0  0  0  0  0  0  0  0  0  0  0
    2.7190    2.0750   -0.8340 H   0  0  0  0  0  0  0  0  0  0  0  0
    3.4990    3.6130   -0.5220 H   0  0  0  0  0  0  0  0  0  0  0  0
    3.0840    2.5840    0.8420 H   0  0  0  0  0  0  0  0  0  0  0  0
    0.5360   11.8780    0.0530 C   0  0  0  0  0  0  0  0  0  0  0  0
    1.1370   13.1950    0.2960 C   0  0  0  0  0  0  0  0  0  0  0  0
   -0.5230   11.8910   -0.1840 H   0  0  0  0  0  0  0  0  0  0  0  0
    2.3210   10.7650    0.2080 H   0  0  0  0  0  0  0  0  0  0  0  0
   -2.2910    2.0110   -0.0780 H   0  0  0  0  0  0  0  0  0  0  0  0
   -3.0440    3.5120   -0.0600 H   0  0  0  0  0  0  0  0  0  0  0  0
    0.1910   14.1430    0.1930 O   0  0  0  0  0  0  0  0  0  0  0  0
    2.3030   13.4490    0.5190 O   0  0  0  0  0  0  0  0  0  0  0  0
    0.6690   14.9880    0.3220 H   0  0  0  0  0  0  0  0  0  0  0  0
  1  5  1  0  0  0  0
  2  1  1  0  0  0  0
  3  2  2  0  0  0  0
  4  2  1  6  0  0  0
  4 10  5  0  0  0  0
  6  4  5  0  0  0  0
  6  7  5  0  0  0  0
  6 13  1  6  0  0  0
  7 12  1  0  0  0  0
  8  7  5  6  0  0  0
  8 11  1  0  0  0  0
  9  8  5  0  0  0  0
  9 15  1  0  0  0  0
 10  9  5  0  0  0  0
 10 14  1  6  0  0  0
 11 19  1  0  0  0  0
 11 26  1  6  0  0  0
 13 34  1  0  0  0  0
 13 35  1  0  0  0  0
 14 27  1  0  0  0  0
 14 28  1  0  0  0  0
 14 29  1  0  0  0  0
 16 11  1  0  0  0  0
 16 23  1  0  0  0  0
 16 25  1  0  0  0  0
 17 16  1  0  0  0  0
 17 24  1  6  0  0  0
 18 17  1  0  0  0  0
 19 18  1  0  0  0  0
 20 17  1  0  0  0  0
 20 33  1  0  0  0  0
 21 19  1  0  0  0  0
 22 18  1  0  0  0  0
 30 20  2  0  0  0  0
 30 32  1  0  0  0  0
 31 30  1  0  0  0  0
 31 37  2  0  0  0  0
 36 31  1  0  0  0  0
 38 36  1  0  0  0  0
M  END
