
 OpenBabel11042013043D

 44 46  0  0  1  0  0  0  0  0999 V2000
    1.1510    1.3090    0.2400 O   0  0  0  0  0  0  0  0  0  0  0  0
   -0.0060    1.9930    0.3610 C   0  0  0  0  0  0  0  0  0  0  0  0
   -1.0680    1.4140    0.5500 O   0  0  0  0  0  0  0  0  0  0  0  0
    0.1010    3.4760    0.2140 C   0  0  2  0  0  0  0  0  0  0  0  0
    1.9430    1.8610    0.0920 H   0  0  0  0  0  0  0  0  0  0  0  0
   -1.0530    4.1760    0.1970 C   0  0  0  0  0  0  0  0  0  0  0  0
   -1.0400    5.5110    0.0200 C   0  0  0  0  0  0  0  0  0  0  0  0
    0.1150    6.2060   -0.1510 C   0  0  1  0  0  0  0  0  0  0  0  0
    1.2690    5.4910   -0.0950 C   0  0  0  0  0  0  0  0  0  0  0  0
    1.2570    4.1530    0.0790 C   0  0  2  0  0  0  0  0  0  0  0  0
    0.0850    7.7030   -0.4670 C   0  0  2  0  0  0  0  0  0  0  0  0
   -2.0030    6.0170   -0.0160 H   0  0  0  0  0  0  0  0  0  0  0  0
   -2.0110    3.6690    0.3040 H   0  0  0  0  0  0  0  0  0  0  0  0
    2.4380    3.4970    0.0940 F   0  0  0  0  0  0  0  0  0  0  0  0
    2.2310    5.9800   -0.2230 H   0  0  0  0  0  0  0  0  0  0  0  0
    1.2200    8.6450   -0.0430 C   0  0  0  0  0  0  0  0  0  0  0  0
    0.6170    9.9960   -0.4500 C   0  0  1  0  0  0  0  0  0  0  0  0
   -0.8070    9.8500   -0.0760 N   0  0  0  0  0  0  0  0  0  0  0  0
   -1.0740    8.4260    0.0870 N   0  0  0  0  0  0  0  0  0  0  0  0
    1.1790   11.2860    0.1080 C   0  0  0  0  0  0  0  0  0  0  0  0
   -1.9160    8.1700   -0.4340 H   0  0  0  0  0  0  0  0  0  0  0  0
   -0.9580   10.3270    0.8190 H   0  0  0  0  0  0  0  0  0  0  0  0
    2.1510    8.4410   -0.5820 H   0  0  0  0  0  0  0  0  0  0  0  0
    0.6740   10.0630   -1.5460 H   0  0  0  0  0  0  0  0  0  0  0  0
    1.4190    8.5890    1.0350 H   0  0  0  0  0  0  0  0  0  0  0  0
    0.0100    7.7520   -1.5650 H   0  0  0  0  0  0  0  0  0  0  0  0
    0.6370   12.4770   -0.2320 C   0  0  0  0  0  0  0  0  0  0  0  0
    0.8820   13.8160    0.4050 C   0  0  1  0  0  0  0  0  0  0  0  0
   -0.1750   12.4630   -0.9620 H   0  0  0  0  0  0  0  0  0  0  0  0
    1.9820   11.2280    0.8360 H   0  0  0  0  0  0  0  0  0  0  0  0
    2.0980   14.6120   -0.0330 C   0  0  0  0  0  0  0  0  0  0  0  0
    1.7530   16.0090    0.4690 C   0  0  2  0  0  0  0  0  0  0  0  0
    0.2700   16.0800    0.4250 N   0  0  0  0  0  0  0  0  0  0  0  0
   -0.1970   14.7570    0.0510 N   0  0  0  0  0  0  0  0  0  0  0  0
    2.4020   17.1410   -0.3180 C   0  0  0  0  0  0  0  0  0  0  0  0
   -1.0530   14.5050    0.5540 H   0  0  0  0  0  0  0  0  0  0  0  0
   -0.0040   16.7910   -0.2680 H   0  0  0  0  0  0  0  0  0  0  0  0
    3.0190   14.2400    0.4290 H   0  0  0  0  0  0  0  0  0  0  0  0
    2.0550   16.1310    1.5160 H   0  0  0  0  0  0  0  0  0  0  0  0
    2.2330   14.5960   -1.1230 H   0  0  0  0  0  0  0  0  0  0  0  0
    0.8910   13.6920    1.4970 H   0  0  0  0  0  0  0  0  0  0  0  0
    1.5890   18.2050   -0.5170 O   0  0  0  0  0  0  0  0  0  0  0  0
    3.5640   17.1860   -0.6910 O   0  0  0  0  0  0  0  0  0  0  0  0
    2.1660   18.8800   -0.9330 H   0  0  0  0  0  0  0  0  0  0  0  0
  1  5  1  0  0  0  0
  2  1  1  0  0  0  0
  3  2  2  0  0  0  0
  4  2  1  6  0  0  0
  4 10  5  0  0  0  0
  6  4  5  0  0  0  0
  6  7  5  0  0  0  0
  6 13  1  0  0  0  0
  7 12  1  0  0  0  0
  8  7  5  6  0  0  0
  8 11  1  0  0  0  0
  9  8  5  0  0  0  0
  9 15  1  0  0  0  0
 10  9  5  0  0  0  0
 10 14  1  6  0  0  0
 11 19  1  0  0  0  0
 11 26  1  6  0  0  0
 16 11  1  0  0  0  0
 16 23  1  0  0  0  0
 16 25  1  0  0  0  0
 17 16  1  0  0  0  0
 17 24  1  6  0  0  0
 18 17  1  0  0  0  0
 19 18  1  0  0  0  0
 20 17  1  0  0  0  0
 20 30  1  0  0  0  0
 21 19  1  0  0  0  0
 22 18  1  0  0  0  0
 27 20  2  0  0  0  0
 27 29  1  0  0  0  0
 28 27  1  0  0  0  0
 28 34  1  0  0  0  0
 28 41  1  1  0  0  0
 31 28  1  0  0  0  0
 31 38  1  0  0  0  0
 31 40  1  0  0  0  0
 32 31  1  0  0  0  0
 32 39  1  1  0  0  0
 33 32  1  0  0  0  0
 34 33  1  0  0  0  0
 35 32  1  0  0  0  0
 35 43  2  0  0  0  0
 36 34  1  0  0  0  0
 37 33  1  0  0  0  0
 42 35  1  0  0  0  0
 44 42  1  0  0  0  0
M  END
