44

O          1.15100        1.30900        0.24000
C         -0.00600        1.99300        0.36100
O         -1.06800        1.41400        0.55000
C          0.10100        3.47600        0.21400
H          1.94300        1.86100        0.09200
C         -1.05300        4.17600        0.19700
C         -1.04000        5.51100        0.02000
C          0.11500        6.20600       -0.15100
C          1.26900        5.49100       -0.09500
C          1.25700        4.15300        0.07900
C          0.08500        7.70300       -0.46700
H         -2.00300        6.01700       -0.01600
H         -2.01100        3.66900        0.30400
F          2.43800        3.49700        0.09400
H          2.23100        5.98000       -0.22300
C          1.22000        8.64500       -0.04300
C          0.61700        9.99600       -0.45000
N         -0.80700        9.85000       -0.07600
N         -1.07400        8.42600        0.08700
C          1.17900       11.28600        0.10800
H         -1.91600        8.17000       -0.43400
H         -0.95800       10.32700        0.81900
H          2.15100        8.44100       -0.58200
H          0.67400       10.06300       -1.54600
H          1.41900        8.58900        1.03500
H          0.01000        7.75200       -1.56500
C          0.63700       12.47700       -0.23200
C          0.88200       13.81600        0.40500
H         -0.17500       12.46300       -0.96200
H          1.98200       11.22800        0.83600
C          2.09800       14.61200       -0.03300
C          1.75300       16.00900        0.46900
N          0.27000       16.08000        0.42500
N         -0.19700       14.75700        0.05100
C          2.40200       17.14100       -0.31800
H         -1.05300       14.50500        0.55400
H         -0.00400       16.79100       -0.26800
H          3.01900       14.24000        0.42900
H          2.05500       16.13100        1.51600
H          2.23300       14.59600       -1.12300
H          0.89100       13.69200        1.49700
O          1.58900       18.20500       -0.51700
O          3.56400       17.18600       -0.69100
H          2.16600       18.88000       -0.93300
