30

O          1.38000       -0.05400        0.06300
C          0.30200        0.64000       -0.35200
O         -0.65200        0.01900       -0.80300
C          0.33600        2.15800       -0.22100
H          2.09000        0.43500        0.49700
C         -0.88200        2.79300       -0.16300
C         -0.91300        4.14500       -0.17900
C          0.19800        4.89800       -0.10200
C          1.38800        4.26100       -0.05800
C          1.48200        2.90300       -0.18200
N          0.22100        6.27500        0.01500
H         -1.86300        4.67600       -0.21000
C         -2.22300        2.05700        0.01500
C          2.90100        2.37400       -0.28700
O          2.53800        5.02200        0.14500
N         -0.73700        6.96200       -0.39300
C         -0.48300        8.28900       -0.14300
H          2.29800        5.93300        0.40400
C         -3.38600        2.88000        0.58200
H         -3.06900        3.49700        1.43100
H         -3.81700        3.53400       -0.18400
H         -4.18500        2.22100        0.93800
H         -2.07100        1.25400        0.74800
H         -2.54600        1.60500       -0.93000
H          3.23700        1.98300        0.68000
H          3.63100        3.14100       -0.57200
H          2.98500        1.61300       -1.06800
O         -1.60600        9.03300       -0.21400
O          0.57600        8.83300        0.15000
H         -1.27800        9.92000        0.03200
