42

O          1.76300       -0.29900        0.60900
C          0.56700        0.32300        0.77000
O         -0.40700       -0.35000        1.07300
C          0.59000        1.81400        0.49100
H          2.49500        0.33400        0.48500
C         -0.60700        2.43800        0.41400
C         -0.60300        3.75800        0.14100
C          0.48400        4.53200       -0.04900
C          1.67500        3.88200        0.02100
C          1.71900        2.53600        0.24900
C          0.20200        5.98300       -0.49200
H         -1.56500        4.20100        0.02200
C         -2.98600        2.31000       -0.02600
O          2.94900        1.88600        0.14500
H          2.59400        4.43000       -0.15000
O          0.87900        7.13200        0.09900
C         -1.30000        7.86700       -0.51900
C         -1.26500        6.39400       -0.29400
C          0.33300        9.69600       -0.12400
H         -1.56700        6.20800        0.75000
H         -1.87700        8.32200        0.29400
H         -1.79600        8.13400       -1.45600
H         -1.96400        5.89100       -0.96600
H          0.52400        8.21200       -1.57600
C          0.17400        8.24400       -0.53400
H          0.44300        6.00400       -1.56500
H         -3.24200        3.30200        0.36400
H         -2.86700        2.34500       -1.11500
H         -3.83100        1.66300        0.21600
O         -1.81300        1.77100        0.57500
H          3.37000        2.10100       -0.71200
C          1.66300       10.25800        0.24900
N          1.16100       11.47300        0.87300
N         -0.07600       11.24200        1.43700
N         -0.48800       10.11700        1.04100
C          1.43600       12.72000        0.35700
H          2.31700       10.45300       -0.60300
H          2.17300        9.66900        1.01600
H         -0.06300       10.27600       -0.97800
O          0.53500       13.67100        0.68300
O          2.35100       12.99700       -0.40600
H          0.81900       14.45000        0.16700
