
 OpenBabel11042013043D

 28 28  0  0  1  0  0  0  0  0999 V2000
    1.2120    0.7000    0.0000 O   0  0  0  0  0  0  0  0  0  0  0  0
   -0.0040    1.6180    0.0000 C   0  0  0  0  0  0  0  0  0  0  0  0
   -1.2120    0.7000    0.0000 O   0  0  0  0  0  0  0  0  0  0  0  0
    0.0530    3.1160    0.0000 C   0  0  1  0  0  0  0  0  0  0  0  0
    2.5030    0.4170    0.0000 H   0  0  0  0  0  0  0  0  0  0  0  0
   -1.8470    2.6630    0.0000 C   0  0  1  0  0  0  0  0  0  0  0  0
  -15.9840    1.6830    0.0000 C   0  0  1  0  0  0  0  0  0  0  0  0
   -0.0720    5.0160    0.0000 C   0  0  1  0  0  0  0  0  0  0  0  0
    0.4050    3.1580    0.0000 C   0  0  0  0  0  0  0  0  0  0  0  0
   -0.0270    3.1070    0.0000 C   0  0  2  0  0  0  0  0  0  0  0  0
   -0.0770    6.1130    0.0000 C   0  0  0  0  0  0  0  0  0  0  0  0
   -2.2460    4.9180    0.0000 C   0  0  0  0  0  0  0  0  0  0  0  0
   -1.7680    2.6720    0.0000 C   0  0  0  0  0  0  0  0  0  0  0  0
    0.5640    2.9090    0.0000 C   0  0  0  0  0  0  0  0  0  0  0  0
    1.9190    5.1320    0.0000 H   0  0  0  0  0  0  0  0  0  0  0  0
    0.4990    2.9090    0.0000 H   0  0  0  0  0  0  0  0  0  0  0  0
    0.5380    2.8820    0.0000 H   0  0  0  0  0  0  0  0  0  0  0  0
    0.8850    2.6980    0.0000 H   0  0  0  0  0  0  0  0  0  0  0  0
    0.5320    2.9810    0.0000 O   0  0  0  0  0  0  0  0  0  0  0  0
   -1.7420    2.6750    0.0000 N   0  0  0  0  0  0  0  0  0  0  0  0
   -0.1020    7.4630    0.0000 C   0  0  0  0  0  0  0  0  0  0  0  0
   -0.0180    8.4810    0.0000 C   0  0  0  0  0  0  0  0  0  0  0  0
 -105.9980   47.6620    0.0000 H   0  0  0  0  0  0  0  0  0  0  0  0
   -1.3520    5.1410    0.0000 H   0  0  0  0  0  0  0  0  0  0  0  0
   -0.9770    4.8480    0.0000 H   0  0  0  0  0  0  0  0  0  0  0  0
   -1.6940    9.9940    0.0000 O   0  0  0  0  0  0  0  0  0  0  0  0
    1.2930    9.7700    0.0000 O   0  0  0  0  0  0  0  0  0  0  0  0
   -1.8030   11.5040    0.0000 H   0  0  0  0  0  0  0  0  0  0  0  0
  1  5  1  0  0  0  0
  2  1  1  0  0  0  0
  3  2  2  0  0  0  0
  4  2  1  1  0  0  0
  4 10  5  0  0  0  0
  6  4  5  0  0  0  0
  6  7  5  0  0  0  0
  6 13  1  6  0  0  0
  7 12  1  6  0  0  0
  8  7  5  0  0  0  0
  8 11  1  6  0  0  0
  9  8  5  0  0  0  0
  9 15  1  0  0  0  0
 10  9  5  1  0  0  0
 10 19  1  0  0  0  0
 12 23  1  0  0  0  0
 12 24  1  0  0  0  0
 12 25  1  0  0  0  0
 13 20  3  0  0  0  0
 14 16  1  0  0  0  0
 14 17  1  0  0  0  0
 14 18  1  0  0  0  0
 14 19  1  0  0  0  0
 21 11  3  0  0  0  0
 22 21  1  0  0  0  0
 22 27  2  0  0  0  0
 26 22  1  0  0  0  0
 28 26  1  0  0  0  0
M  END
