22

O          1.53500        0.61300        0.13100
C          0.30000        1.09300        0.39400
O         -0.60500        0.33000        0.69000
C          0.12800        2.57700        0.21800
H          2.24000        1.27500       -0.00400
C         -1.08000        3.12100       -0.09700
C         -1.16200        4.46700       -0.30500
C         -0.09600        5.26900       -0.06000
C          1.08900        4.72300        0.27600
C          1.19500        3.38200        0.38400
C         -0.25200        6.74700       -0.17700
O         -2.33900        5.01200       -0.79300
C         -2.34200        2.28000       -0.18800
F          2.40100        2.84300        0.68300
Cl         2.52700        5.65900        0.58100
H         -2.55700        4.65700       -1.67300
H         -3.24600        2.87500       -0.35800
H         -2.28300        1.54100       -0.99200
H         -2.52300        1.77700        0.77000
O         -1.40900        7.19700        0.34800
O          0.55700        7.53300       -0.63700
H         -1.40000        8.16200        0.18500
