
 OpenBabel11042013043D

 22 22  0  0  1  0  0  0  0  0999 V2000
    1.5350    0.6130    0.1310 O   0  0  0  0  0  0  0  0  0  0  0  0
    0.3000    1.0930    0.3940 C   0  0  0  0  0  0  0  0  0  0  0  0
   -0.6050    0.3300    0.6900 O   0  0  0  0  0  0  0  0  0  0  0  0
    0.1280    2.5770    0.2180 C   0  0  1  0  0  0  0  0  0  0  0  0
    2.2400    1.2750   -0.0040 H   0  0  0  0  0  0  0  0  0  0  0  0
   -1.0800    3.1210   -0.0970 C   0  0  2  0  0  0  0  0  0  0  0  0
   -1.1620    4.4670   -0.3050 C   0  0  1  0  0  0  0  0  0  0  0  0
   -0.0960    5.2690   -0.0600 C   0  0  1  0  0  0  0  0  0  0  0  0
    1.0890    4.7230    0.2760 C   0  0  1  0  0  0  0  0  0  0  0  0
    1.1950    3.3820    0.3840 C   0  0  1  0  0  0  0  0  0  0  0  0
   -0.2520    6.7470   -0.1770 C   0  0  0  0  0  0  0  0  0  0  0  0
   -2.3390    5.0120   -0.7930 O   0  0  0  0  0  0  0  0  0  0  0  0
   -2.3420    2.2800   -0.1880 C   0  0  0  0  0  0  0  0  0  0  0  0
    2.4010    2.8430    0.6830 F   0  0  0  0  0  0  0  0  0  0  0  0
    2.5270    5.6590    0.5810 Cl  0  0  0  0  0  0  0  0  0  0  0  0
   -2.5570    4.6570   -1.6730 H   0  0  0  0  0  0  0  0  0  0  0  0
   -3.2460    2.8750   -0.3580 H   0  0  0  0  0  0  0  0  0  0  0  0
   -2.2830    1.5410   -0.9920 H   0  0  0  0  0  0  0  0  0  0  0  0
   -2.5230    1.7770    0.7700 H   0  0  0  0  0  0  0  0  0  0  0  0
   -1.4090    7.1970    0.3480 O   0  0  0  0  0  0  0  0  0  0  0  0
    0.5570    7.5330   -0.6370 O   0  0  0  0  0  0  0  0  0  0  0  0
   -1.4000    8.1620    0.1850 H   0  0  0  0  0  0  0  0  0  0  0  0
  1  5  1  0  0  0  0
  2  1  1  0  0  0  0
  3  2  2  0  0  0  0
  4  2  1  1  0  0  0
  4 10  5  0  0  0  0
  6  4  5  0  0  0  0
  6  7  5  0  0  0  0
  6 13  1  1  0  0  0
  7 12  1  6  0  0  0
  8  7  5  0  0  0  0
  8 11  1  6  0  0  0
  9  8  5  0  0  0  0
  9 15  1  6  0  0  0
 10  9  5  0  0  0  0
 10 14  1  1  0  0  0
 11 21  2  0  0  0  0
 12 16  1  0  0  0  0
 13 17  1  0  0  0  0
 13 18  1  0  0  0  0
 13 19  1  0  0  0  0
 20 11  1  0  0  0  0
 22 20  1  0  0  0  0
M  END
