
 OpenBabel11042013043D

 39 41  0  0  1  0  0  0  0  0999 V2000
    1.1570   -0.5310    0.0380 O   0  0  0  0  0  0  0  0  0  0  0  0
   -0.0610    0.0460    0.0970 C   0  0  0  0  0  0  0  0  0  0  0  0
   -1.0750   -0.6380    0.1140 O   0  0  0  0  0  0  0  0  0  0  0  0
   -0.0760    1.5460    0.0950 C   0  0  2  0  0  0  0  0  0  0  0  0
    1.9180    0.0630   -0.0450 H   0  0  0  0  0  0  0  0  0  0  0  0
   -1.2980    2.1140    0.0210 C   0  0  0  0  0  0  0  0  0  0  0  0
   -1.4650    3.4540   -0.0570 C   0  0  1  0  0  0  0  0  0  0  0  0
   -0.3660    4.2670   -0.0740 C   0  0  1  0  0  0  0  0  0  0  0  0
    0.8550    3.6900    0.0540 C   0  0  0  0  0  0  0  0  0  0  0  0
    1.0040    2.3540    0.1410 C   0  0  0  0  0  0  0  0  0  0  0  0
   -0.4890    5.7690   -0.3010 C   0  0  2  0  0  0  0  0  0  0  0  0
   -2.8850    3.9730   -0.1690 C   0  0  0  0  0  0  0  0  0  0  0  0
   -2.1820    1.4760    0.0030 H   0  0  0  0  0  0  0  0  0  0  0  0
    2.0150    1.9760    0.2260 H   0  0  0  0  0  0  0  0  0  0  0  0
    1.7590    4.2950    0.0580 H   0  0  0  0  0  0  0  0  0  0  0  0
    0.6550    6.7170    0.0290 C   0  0  0  0  0  0  0  0  0  0  0  0
   -0.1300    7.9180    0.1970 N   0  0  0  0  0  0  0  0  0  0  0  0
   -1.3860    7.6180    0.6340 N   0  0  0  0  0  0  0  0  0  0  0  0
   -1.5860    6.3910    0.4780 N   0  0  0  0  0  0  0  0  0  0  0  0
    0.3440    9.2700    0.4090 C   0  0  1  0  0  0  0  0  0  0  0  0
    1.3740    6.8070   -0.7870 H   0  0  0  0  0  0  0  0  0  0  0  0
    1.1530    6.5000    0.9790 H   0  0  0  0  0  0  0  0  0  0  0  0
   -0.7340    5.8970   -1.3680 H   0  0  0  0  0  0  0  0  0  0  0  0
    1.7350    9.6300   -0.0680 C   0  0  0  0  0  0  0  0  0  0  0  0
    1.4790   10.8310   -0.8430 N   0  0  0  0  0  0  0  0  0  0  0  0
    0.1420   10.8860   -1.1750 N   0  0  0  0  0  0  0  0  0  0  0  0
   -0.5100   10.1490   -0.4030 N   0  0  0  0  0  0  0  0  0  0  0  0
    1.8350   12.1080   -0.2600 C   0  0  0  0  0  0  0  0  0  0  0  0
    2.4340    9.7820    0.7620 H   0  0  0  0  0  0  0  0  0  0  0  0
    2.1670    8.8770   -0.7320 H   0  0  0  0  0  0  0  0  0  0  0  0
    0.2380    9.4980    1.4770 H   0  0  0  0  0  0  0  0  0  0  0  0
    1.7050   13.2420    0.0970 C   0  0  0  0  0  0  0  0  0  0  0  0
    1.1080   14.5150    0.3400 C   0  0  0  0  0  0  0  0  0  0  0  0
   -3.6220    3.1640   -0.2140 H   0  0  0  0  0  0  0  0  0  0  0  0
   -3.1550    4.5680    0.7100 H   0  0  0  0  0  0  0  0  0  0  0  0
   -3.0130    4.5710   -1.0770 H   0  0  0  0  0  0  0  0  0  0  0  0
   -0.2380   14.4570    0.2820 O   0  0  0  0  0  0  0  0  0  0  0  0
    1.7230   15.5510    0.5130 O   0  0  0  0  0  0  0  0  0  0  0  0
   -0.5450   15.3810    0.3350 H   0  0  0  0  0  0  0  0  0  0  0  0
  1  5  1  0  0  0  0
  2  1  1  0  0  0  0
  3  2  2  0  0  0  0
  4  2  1  6  0  0  0
  4 10  5  0  0  0  0
  6  4  5  0  0  0  0
  6  7  5  0  0  0  0
  6 13  1  0  0  0  0
  7 12  1  6  0  0  0
  8  7  5  0  0  0  0
  8  9  5  6  0  0  0
  8 11  1  0  0  0  0
  9 15  1  0  0  0  0
 10  9  5  0  0  0  0
 10 14  1  0  0  0  0
 11 19  1  0  0  0  0
 11 23  1  6  0  0  0
 12 34  1  0  0  0  0
 12 35  1  0  0  0  0
 12 36  1  0  0  0  0
 16 11  1  0  0  0  0
 16 21  1  0  0  0  0
 16 22  1  0  0  0  0
 17 16  1  0  0  0  0
 18 17  1  0  0  0  0
 19 18  2  0  0  0  0
 20 17  1  0  0  0  0
 20 27  1  0  0  0  0
 20 31  1  1  0  0  0
 24 20  1  0  0  0  0
 24 29  1  0  0  0  0
 24 30  1  0  0  0  0
 25 24  1  0  0  0  0
 26 25  1  0  0  0  0
 27 26  2  0  0  0  0
 28 25  1  0  0  0  0
 32 28  3  0  0  0  0
 33 32  1  0  0  0  0
 33 38  2  0  0  0  0
 37 33  1  0  0  0  0
 39 37  1  0  0  0  0
M  END
