39

O          1.15700       -0.53100        0.03800
C         -0.06100        0.04600        0.09700
O         -1.07500       -0.63800        0.11400
C         -0.07600        1.54600        0.09500
H          1.91800        0.06300       -0.04500
C         -1.29800        2.11400        0.02100
C         -1.46500        3.45400       -0.05700
C         -0.36600        4.26700       -0.07400
C          0.85500        3.69000        0.05400
C          1.00400        2.35400        0.14100
C         -0.48900        5.76900       -0.30100
C         -2.88500        3.97300       -0.16900
H         -2.18200        1.47600        0.00300
H          2.01500        1.97600        0.22600
H          1.75900        4.29500        0.05800
C          0.65500        6.71700        0.02900
N         -0.13000        7.91800        0.19700
N         -1.38600        7.61800        0.63400
N         -1.58600        6.39100        0.47800
C          0.34400        9.27000        0.40900
H          1.37400        6.80700       -0.78700
H          1.15300        6.50000        0.97900
H         -0.73400        5.89700       -1.36800
C          1.73500        9.63000       -0.06800
N          1.47900       10.83100       -0.84300
N          0.14200       10.88600       -1.17500
N         -0.51000       10.14900       -0.40300
C          1.83500       12.10800       -0.26000
H          2.43400        9.78200        0.76200
H          2.16700        8.87700       -0.73200
H          0.23800        9.49800        1.47700
C          1.70500       13.24200        0.09700
C          1.10800       14.51500        0.34000
H         -3.62200        3.16400       -0.21400
H         -3.15500        4.56800        0.71000
H         -3.01300        4.57100       -1.07700
O         -0.23800       14.45700        0.28200
O          1.72300       15.55100        0.51300
H         -0.54500       15.38100        0.33500
