
 OpenBabel11042013043D

 37 38  0  0  1  0  0  0  0  0999 V2000
    1.6450    0.5310    0.1090 O   0  0  0  0  0  0  0  0  0  0  0  0
    0.5460    1.1700   -0.3570 C   0  0  0  0  0  0  0  0  0  0  0  0
   -0.3470    0.5710   -0.9330 O   0  0  0  0  0  0  0  0  0  0  0  0
    0.5770    2.6530   -0.1520 C   0  0  2  0  0  0  0  0  0  0  0  0
    2.2310    1.0850    0.6540 H   0  0  0  0  0  0  0  0  0  0  0  0
   -0.5690    3.2900    0.1880 C   0  0  2  0  0  0  0  0  0  0  0  0
   -0.5420    4.6380    0.2650 C   0  0  0  0  0  0  0  0  0  0  0  0
    0.5890    5.3620    0.0560 C   0  0  2  0  0  0  0  0  0  0  0  0
    1.7520    4.6960   -0.1770 C   0  0  2  0  0  0  0  0  0  0  0  0
    1.7170    3.3460   -0.3200 C   0  0  0  0  0  0  0  0  0  0  0  0
    0.5510    6.8190    0.2120 C   0  0  0  0  0  0  0  0  0  0  0  0
   -1.4570    5.1570    0.5380 H   0  0  0  0  0  0  0  0  0  0  0  0
   -2.9470    3.0510    0.0230 C   0  0  0  0  0  0  0  0  0  0  0  0
    2.6360    2.8240   -0.5860 H   0  0  0  0  0  0  0  0  0  0  0  0
    3.0970    5.3850   -0.2820 C   0  0  0  0  0  0  0  0  0  0  0  0
   -0.4870    7.6260   -0.0880 C   0  0  0  0  0  0  0  0  0  0  0  0
   -0.5430    9.0760    0.3000 C   0  0  1  0  0  0  0  0  0  0  0  0
   -1.3920    7.2220   -0.5390 H   0  0  0  0  0  0  0  0  0  0  0  0
    1.4380    7.2610    0.6610 H   0  0  0  0  0  0  0  0  0  0  0  0
   -3.6330    2.2040   -0.0650 H   0  0  0  0  0  0  0  0  0  0  0  0
   -3.3620    3.7500    0.7560 H   0  0  0  0  0  0  0  0  0  0  0  0
   -2.8640    3.5240   -0.9610 H   0  0  0  0  0  0  0  0  0  0  0  0
   -1.6990    2.5440    0.4740 O   0  0  0  0  0  0  0  0  0  0  0  0
    3.0480    6.2940   -0.8870 H   0  0  0  0  0  0  0  0  0  0  0  0
    3.8580    4.7420   -0.7350 H   0  0  0  0  0  0  0  0  0  0  0  0
    3.4520    5.6470    0.7230 H   0  0  0  0  0  0  0  0  0  0  0  0
    0.6880    9.9160    0.0920 C   0  0  0  0  0  0  0  0  0  0  0  0
    0.0580   11.1890   -0.1180 N   0  0  0  0  0  0  0  0  0  0  0  0
   -1.2330   11.0550   -0.5350 N   0  0  0  0  0  0  0  0  0  0  0  0
   -1.5640    9.8360   -0.4660 N   0  0  0  0  0  0  0  0  0  0  0  0
    0.6840   12.3930    0.0300 C   0  0  0  0  0  0  0  0  0  0  0  0
    1.2490    9.6640   -0.8160 H   0  0  0  0  0  0  0  0  0  0  0  0
    1.3640    9.9330    0.9520 H   0  0  0  0  0  0  0  0  0  0  0  0
   -0.8580    9.1170    1.3500 H   0  0  0  0  0  0  0  0  0  0  0  0
   -0.1200   13.4610   -0.1390 O   0  0  0  0  0  0  0  0  0  0  0  0
    1.8580   12.5600    0.3260 O   0  0  0  0  0  0  0  0  0  0  0  0
    0.4690   14.2220    0.0360 H   0  0  0  0  0  0  0  0  0  0  0  0
  1  5  1  0  0  0  0
  2  1  1  0  0  0  0
  3  2  2  0  0  0  0
  4  2  1  6  0  0  0
  4 10  5  0  0  0  0
  6  4  5  0  0  0  0
  6  7  5  0  0  0  0
  6 23  1  1  0  0  0
  7 12  1  0  0  0  0
  8  7  5  0  0  0  0
  8 11  1  1  0  0  0
  9  8  5  0  0  0  0
  9 15  1  1  0  0  0
 10  9  5  0  0  0  0
 10 14  1  0  0  0  0
 11 19  1  0  0  0  0
 13 20  1  0  0  0  0
 13 21  1  0  0  0  0
 13 22  1  0  0  0  0
 13 23  1  0  0  0  0
 15 24  1  0  0  0  0
 15 25  1  0  0  0  0
 15 26  1  0  0  0  0
 16 11  2  0  0  0  0
 16 18  1  0  0  0  0
 17 16  1  0  0  0  0
 17 30  1  0  0  0  0
 17 34  1  1  0  0  0
 27 17  1  0  0  0  0
 27 32  1  0  0  0  0
 27 33  1  0  0  0  0
 28 27  1  0  0  0  0
 29 28  1  0  0  0  0
 30 29  2  0  0  0  0
 31 28  1  0  0  0  0
 31 36  2  0  0  0  0
 35 31  1  0  0  0  0
 37 35  1  0  0  0  0
M  END
