
 OpenBabel11042013043D

 27 28  0  0  1  0  0  0  0  0999 V2000
    1.2480   -0.1700    0.0910 O   0  0  0  0  0  0  0  0  0  0  0  0
    0.0500    0.4300    0.2660 C   0  0  0  0  0  0  0  0  0  0  0  0
   -0.9590   -0.2490    0.3780 O   0  0  0  0  0  0  0  0  0  0  0  0
    0.0550    1.9340    0.2450 C   0  0  2  0  0  0  0  0  0  0  0  0
    2.0360    0.3640   -0.0910 H   0  0  0  0  0  0  0  0  0  0  0  0
   -1.1230    2.5710    0.1970 C   0  0  1  0  0  0  0  0  0  0  0  0
   -1.1960    3.9200    0.0960 C   0  0  1  0  0  0  0  0  0  0  0  0
   -0.0640    4.6860   -0.0160 C   0  0  1  0  0  0  0  0  0  0  0  0
    1.1330    4.0140    0.0250 C   0  0  1  0  0  0  0  0  0  0  0  0
    1.1730    2.6760    0.2090 C   0  0  0  0  0  0  0  0  0  0  0  0
   -0.1840    6.2010   -0.2890 C   0  0  2  0  0  0  0  0  0  0  0  0
   -2.5330    4.4400    0.0160 C   0  0  0  0  0  0  0  0  0  0  0  0
   -2.2800    1.8620    0.2010 F   0  0  0  0  0  0  0  0  0  0  0  0
    2.1510    2.2110    0.2670 H   0  0  0  0  0  0  0  0  0  0  0  0
    2.8210    4.7890   -0.3430 Br  0  0  0  0  0  0  0  0  0  0  0  0
   -3.6210    4.8370   -0.0760 N   0  0  0  0  0  0  0  0  0  0  0  0
    0.8950    7.2270    0.0070 C   0  0  0  0  0  0  0  0  0  0  0  0
    0.0690    8.4030    0.0830 N   0  0  0  0  0  0  0  0  0  0  0  0
   -1.2020    8.0930    0.4400 N   0  0  0  0  0  0  0  0  0  0  0  0
   -1.3270    6.8390    0.4240 N   0  0  0  0  0  0  0  0  0  0  0  0
    0.5090    9.6900   -0.0340 C   0  0  0  0  0  0  0  0  0  0  0  0
    1.3720    7.1070    0.9870 H   0  0  0  0  0  0  0  0  0  0  0  0
    1.6440    7.3420   -0.7790 H   0  0  0  0  0  0  0  0  0  0  0  0
   -0.4170    6.2640   -1.3610 H   0  0  0  0  0  0  0  0  0  0  0  0
   -0.4720   10.6110    0.0540 O   0  0  0  0  0  0  0  0  0  0  0  0
    1.6650   10.0440   -0.2180 O   0  0  0  0  0  0  0  0  0  0  0  0
   -0.0110   11.4680   -0.0290 H   0  0  0  0  0  0  0  0  0  0  0  0
  1  5  1  0  0  0  0
  2  1  1  0  0  0  0
  3  2  2  0  0  0  0
  4  2  1  6  0  0  0
  4 10  5  0  0  0  0
  6  4  5  0  0  0  0
  6  7  5  0  0  0  0
  6 13  1  6  0  0  0
  7 12  1  6  0  0  0
  8  7  5  0  0  0  0
  8 11  1  6  0  0  0
  9  8  5  0  0  0  0
  9 15  1  6  0  0  0
 10  9  5  0  0  0  0
 10 14  1  0  0  0  0
 11 20  1  0  0  0  0
 11 24  1  6  0  0  0
 12 16  3  0  0  0  0
 17 11  1  0  0  0  0
 17 22  1  0  0  0  0
 17 23  1  0  0  0  0
 18 17  1  0  0  0  0
 19 18  1  0  0  0  0
 20 19  2  0  0  0  0
 21 18  1  0  0  0  0
 21 26  2  0  0  0  0
 25 21  1  0  0  0  0
 27 25  1  0  0  0  0
M  END
