
 OpenBabel04212111313D

 64 68  0  0  1  0  0  0  0  0999 V2000
    2.5030    3.6010   -0.2280 O   0  0  0  0  0  0  0  0  0  0  0  0
    1.2790    4.0670    0.0930 C   0  0  0  0  0  0  0  0  0  0  0  0
    0.5200    3.3530    0.7310 O   0  0  0  0  0  0  0  0  0  0  0  0
    0.8430    5.4500   -0.3320 C   0  0  2  0  0  0  0  0  0  0  0  0
    3.1310    4.1330   -0.7350 H   0  0  0  0  0  0  0  0  0  0  0  0
    1.6980    6.5510    0.2540 C   0  0  0  0  0  0  0  0  0  0  0  0
    0.7420    7.7050    0.0620 C   0  0  1  0  0  0  0  0  0  0  0  0
   -0.5600    7.1390    0.4410 N   0  0  0  0  0  0  0  0  0  0  0  0
   -0.5130    5.7570    0.1370 N   0  0  0  0  0  0  0  0  0  0  0  0
    1.0920    8.9600    0.8970 C   0  0  1  0  0  0  0  0  0  0  0  0
   -1.2100    5.5520   -0.6170 H   0  0  0  0  0  0  0  0  0  0  0  0
   -0.6810    7.1950    1.4800 H   0  0  0  0  0  0  0  0  0  0  0  0
    1.8070    6.3670    1.3480 H   0  0  0  0  0  0  0  0  0  0  0  0
    0.6790    7.9760   -1.0180 H   0  0  0  0  0  0  0  0  0  0  0  0
    2.7010    6.6710   -0.2080 H   0  0  0  0  0  0  0  0  0  0  0  0
    0.8680    5.5260   -1.4450 H   0  0  0  0  0  0  0  0  0  0  0  0
    2.2810    9.8130    0.3570 C   0  0  0  0  0  0  0  0  0  0  0  0
    1.6660   11.1140    0.2500 N   0  0  0  0  0  0  0  0  0  0  0  0
    0.3370   11.0270    0.5420 N   0  0  0  0  0  0  0  0  0  0  0  0
   -0.0120    9.8900    0.8810 N   0  0  0  0  0  0  0  0  0  0  0  0
    2.2810   12.3260   -0.2020 C   0  0  0  0  0  0  0  0  0  0  0  0
    3.1350    9.8190    1.0670 H   0  0  0  0  0  0  0  0  0  0  0  0
    2.6080    9.4920   -0.6570 H   0  0  0  0  0  0  0  0  0  0  0  0
    1.2550    8.6850    1.9620 H   0  0  0  0  0  0  0  0  0  0  0  0
    1.5230   13.4290   -0.3580 C   0  0  0  0  0  0  0  0  0  0  0  0
    1.9730   14.7620   -0.9120 C   0  0  2  0  0  0  0  0  0  0  0  0
    0.4650   13.3550   -0.1240 H   0  0  0  0  0  0  0  0  0  0  0  0
    3.3370   12.3420   -0.4560 H   0  0  0  0  0  0  0  0  0  0  0  0
    2.8710   15.6450   -0.0010 C   0  0  0  0  0  0  0  0  0  0  0  0
    2.1040   16.8880    0.1220 N   0  0  0  0  0  0  0  0  0  0  0  0
    0.9020   16.6690   -0.4990 N   0  0  0  0  0  0  0  0  0  0  0  0
    0.7990   15.5730   -1.0590 N   0  0  0  0  0  0  0  0  0  0  0  0
    2.6400   18.2610    0.0030 C   0  0  1  0  0  0  0  0  0  0  0  0
    3.8750   15.7770   -0.4550 H   0  0  0  0  0  0  0  0  0  0  0  0
    2.9630   15.1970    1.0120 H   0  0  0  0  0  0  0  0  0  0  0  0
    2.4220   14.6360   -1.9200 H   0  0  0  0  0  0  0  0  0  0  0  0
    1.7960   19.1220    0.3960 C   0  0  0  0  0  0  0  0  0  0  0  0
    2.1860   20.2990    0.1940 C   0  0  0  0  0  0  0  0  0  0  0  0
    3.3560   20.5500    0.6020 C   0  0  1  0  0  0  0  0  0  0  0  0
    4.1930   19.6310    0.3320 C   0  0  0  0  0  0  0  0  0  0  0  0
    3.7720   18.4520    0.5400 C   0  0  0  0  0  0  0  0  0  0  0  0
    3.7670   21.7550   -0.0850 N   0  0  0  0  0  0  0  0  0  0  0  0
    1.4610   21.0330    0.6190 H   0  0  0  0  0  0  0  0  0  0  0  0
    0.8120   19.0090   -0.1150 H   0  0  0  0  0  0  0  0  0  0  0  0
    4.5330   17.7470    0.1460 H   0  0  0  0  0  0  0  0  0  0  0  0
    5.1580   19.8110    0.8630 H   0  0  0  0  0  0  0  0  0  0  0  0
    3.9900   22.8530    0.4680 N   0  0  0  0  0  0  0  0  0  0  0  0
    4.2560   23.9750   -0.4090 C   0  0  2  0  0  0  0  0  0  0  0  0
    4.6970   25.1340    0.2920 O   0  0  0  0  0  0  0  0  0  0  0  0
    2.6610   25.7100   -0.6240 C   0  0  0  0  0  0  0  0  0  0  0  0
    2.9820   24.3590   -1.1930 C   0  0  0  0  0  0  0  0  0  0  0  0
    4.1350   27.4850    0.2800 C   0  0  0  0  0  0  0  0  0  0  0  0
    2.1350   23.6390   -1.1590 H   0  0  0  0  0  0  0  0  0  0  0  0
    2.1680   25.5990    0.3700 H   0  0  0  0  0  0  0  0  0  0  0  0
    2.0340   26.3420   -1.2890 H   0  0  0  0  0  0  0  0  0  0  0  0
    3.2730   24.5110   -2.2570 H   0  0  0  0  0  0  0  0  0  0  0  0
    4.5960   26.3440   -1.3820 H   0  0  0  0  0  0  0  0  0  0  0  0
    4.0730   26.1910   -0.4060 C   0  0  1  0  0  0  0  0  0  0  0  0
    5.0560   23.6680   -1.1200 H   0  0  0  0  0  0  0  0  0  0  0  0
    4.1190   28.6000    0.7400 C   0  0  0  0  0  0  0  0  0  0  0  0
    4.1610   29.9590    1.2160 C   0  0  0  0  0  0  0  0  0  0  0  0
    3.2310   30.8420    0.7970 O   0  0  0  0  0  0  0  0  0  0  0  0
    5.0670   30.3190    1.9530 O   0  0  0  0  0  0  0  0  0  0  0  0
    3.2530   31.7700    1.0680 H   0  0  0  0  0  0  0  0  0  0  0  0
  1  5  1  0  0  0  0
  2  1  1  0  0  0  0
  3  2  2  0  0  0  0
  4  2  1  0  0  0  0
  4  9  1  0  0  0  0
  4 16  1  6  0  0  0
  6  4  1  0  0  0  0
  6 13  1  0  0  0  0
  6 15  1  0  0  0  0
  7  6  1  0  0  0  0
  7 14  1  6  0  0  0
  8  7  1  0  0  0  0
  9  8  1  0  0  0  0
 10  7  1  0  0  0  0
 10 20  1  0  0  0  0
 10 24  1  1  0  0  0
 11  9  1  0  0  0  0
 12  8  1  0  0  0  0
 17 10  1  0  0  0  0
 17 22  1  0  0  0  0
 17 23  1  0  0  0  0
 18 17  1  0  0  0  0
 19 18  1  0  0  0  0
 20 19  2  0  0  0  0
 21 18  1  0  0  0  0
 21 28  1  0  0  0  0
 25 21  2  0  0  0  0
 25 27  1  0  0  0  0
 26 25  1  0  0  0  0
 26 32  1  0  0  0  0
 26 36  1  6  0  0  0
 29 26  1  0  0  0  0
 29 34  1  0  0  0  0
 29 35  1  0  0  0  0
 30 29  1  0  0  0  0
 31 30  1  0  0  0  0
 32 31  2  0  0  0  0
 33 30  1  1  0  0  0
 33 41  5  0  0  0  0
 37 33  5  0  0  0  0
 37 38  5  0  0  0  0
 37 44  1  0  0  0  0
 38 43  1  0  0  0  0
 39 38  5  0  0  0  0
 39 42  1  6  0  0  0
 40 39  5  0  0  0  0
 40 46  1  0  0  0  0
 41 40  5  0  0  0  0
 41 45  1  0  0  0  0
 47 42  2  0  0  0  0
 48 47  1  0  0  0  0
 48 51  1  0  0  0  0
 48 59  1  6  0  0  0
 49 48  1  0  0  0  0
 50 58  1  0  0  0  0
 50 55  1  0  0  0  0
 51 50  1  0  0  0  0
 51 56  1  0  0  0  0
 52 58  1  0  0  0  0
 53 51  1  0  0  0  0
 54 50  1  0  0  0  0
 58 49  1  0  0  0  0
 58 57  1  6  0  0  0
 60 52  3  0  0  0  0
 61 60  1  0  0  0  0
 61 63  2  0  0  0  0
 62 61  1  0  0  0  0
 64 62  1  0  0  0  0
M  END
