
 OpenBabel11032017293D

 39 41  0  0  1  0  0  0  0  0999 V2000
    1.8220   -0.6610    0.3650 O   0  0  0  0  0  0  0  0  0  0  0  0
    0.5610   -0.1910    0.4640 C   0  0  0  0  0  0  0  0  0  0  0  0
   -0.3860   -0.9560    0.5680 O   0  0  0  0  0  0  0  0  0  0  0  0
    0.4090    1.3030    0.4010 C   0  0  2  0  0  0  0  0  0  0  0  0
    2.5380   -0.0140    0.2940 H   0  0  0  0  0  0  0  0  0  0  0  0
   -0.8550    1.7570    0.5080 C   0  0  0  0  0  0  0  0  0  0  0  0
   -1.1740    3.0690    0.3820 C   0  0  1  0  0  0  0  0  0  0  0  0
   -0.1940    3.9890    0.1240 C   0  0  1  0  0  0  0  0  0  0  0  0
    1.0800    3.5120    0.0740 C   0  0  1  0  0  0  0  0  0  0  0  0
    1.3860    2.2080    0.2100 C   0  0  0  0  0  0  0  0  0  0  0  0
   -0.3670    5.4520   -0.3190 C   0  0  2  0  0  0  0  0  0  0  0  0
   -3.0300    3.4060    0.5180 Br  0  0  0  0  0  0  0  0  0  0  0  0
   -1.6590    1.0350    0.6670 H   0  0  0  0  0  0  0  0  0  0  0  0
    2.4310    1.9430    0.1130 H   0  0  0  0  0  0  0  0  0  0  0  0
    2.0990    4.3580   -0.1940 F   0  0  0  0  0  0  0  0  0  0  0  0
    0.2650    6.5050    0.4790 O   0  0  0  0  0  0  0  0  0  0  0  0
   -1.4530    7.5050   -0.8230 C   0  0  0  0  0  0  0  0  0  0  0  0
   -1.7390    6.0440   -0.5700 C   0  0  0  0  0  0  0  0  0  0  0  0
    0.3030    9.0890    0.2460 C   0  0  2  0  0  0  0  0  0  0  0  0
   -2.2710    5.5800   -1.4040 H   0  0  0  0  0  0  0  0  0  0  0  0
   -1.5170    7.7650   -1.8850 H   0  0  0  0  0  0  0  0  0  0  0  0
   -2.2170    8.0920   -0.3090 H   0  0  0  0  0  0  0  0  0  0  0  0
   -2.3480    6.0050    0.3370 H   0  0  0  0  0  0  0  0  0  0  0  0
    0.6270    7.5970   -1.1950 H   0  0  0  0  0  0  0  0  0  0  0  0
   -0.0200    7.6960   -0.3070 C   0  0  1  0  0  0  0  0  0  0  0  0
    0.1510    5.4720   -1.2940 H   0  0  0  0  0  0  0  0  0  0  0  0
   -0.6500    9.9360    0.7090 C   0  0  0  0  0  0  0  0  0  0  0  0
   -0.4190   11.2560    0.8420 C   0  0  0  0  0  0  0  0  0  0  0  0
    0.7890   11.7630    0.5320 C   0  0  1  0  0  0  0  0  0  0  0  0
    1.7830   10.9290    0.1740 C   0  0  0  0  0  0  0  0  0  0  0  0
    1.5400    9.6080    0.0290 C   0  0  0  0  0  0  0  0  0  0  0  0
    1.0350   13.2300    0.5010 C   0  0  0  0  0  0  0  0  0  0  0  0
   -1.2360   11.9090    1.1430 H   0  0  0  0  0  0  0  0  0  0  0  0
   -1.6600    9.5950    0.9160 H   0  0  0  0  0  0  0  0  0  0  0  0
    2.3420    8.9730   -0.3380 H   0  0  0  0  0  0  0  0  0  0  0  0
    2.7730   11.3200   -0.0650 H   0  0  0  0  0  0  0  0  0  0  0  0
   -0.0980   13.9470    0.3730 O   0  0  0  0  0  0  0  0  0  0  0  0
    2.1250   13.7810    0.4740 O   0  0  0  0  0  0  0  0  0  0  0  0
    0.2130   14.8670    0.2500 H   0  0  0  0  0  0  0  0  0  0  0  0
  1  5  1  0  0  0  0
  2  1  1  0  0  0  0
  3  2  2  0  0  0  0
  4  2  1  6  0  0  0
  4 10  5  0  0  0  0
  6  4  5  0  0  0  0
  6  7  5  0  0  0  0
  6 13  1  0  0  0  0
  7 12  1  6  0  0  0
  8  7  5  0  0  0  0
  8 11  1  6  0  0  0
  9  8  5  0  0  0  0
  9 15  1  6  0  0  0
 10  9  5  0  0  0  0
 10 14  1  0  0  0  0
 11 18  1  0  0  0  0
 11 26  1  6  0  0  0
 16 11  1  0  0  0  0
 17 25  1  0  0  0  0
 17 22  1  0  0  0  0
 18 17  1  0  0  0  0
 18 23  1  0  0  0  0
 19 25  1  0  0  0  0
 19 27  5  6  0  0  0
 19 31  5  0  0  0  0
 20 18  1  0  0  0  0
 21 17  1  0  0  0  0
 25 16  1  0  0  0  0
 25 24  1  6  0  0  0
 27 28  5  0  0  0  0
 27 34  1  0  0  0  0
 28 33  1  0  0  0  0
 29 28  5  0  0  0  0
 29 32  1  6  0  0  0
 30 29  5  0  0  0  0
 30 36  1  0  0  0  0
 31 30  5  0  0  0  0
 31 35  1  0  0  0  0
 32 38  2  0  0  0  0
 37 32  1  0  0  0  0
 39 37  1  0  0  0  0
M  END
