35

O          0.71600        0.42800        0.16900
C         -0.33600        1.26900        0.17500
O         -1.47500        0.81700        0.17300
C         -0.04100        2.74600        0.15300
H          1.58900        0.86200        0.15000
C         -1.15600        3.50800        0.16600
C         -1.08700        4.84600        0.08000
C          0.09000        5.51400       -0.03000
C          1.21800        4.74500        0.01100
C          1.15600        3.38100        0.10000
C          0.03000        7.04000       -0.29000
H         -2.03900        5.37200        0.06500
H         -2.14700        3.05300        0.21900
Cl         2.65900        2.47200        0.09400
N          2.52400        5.34500       -0.08700
H          2.67200        5.96600        0.70900
H          2.57000        5.98300       -0.88700
C          1.11400        8.03400        0.15000
C          0.48500        9.35100       -0.31000
N         -0.94300        9.18200       -0.00300
N         -1.15300        7.75200        0.25200
C          1.09300       10.64600        0.15200
H         -2.00000        7.44300       -0.23000
H         -1.17600        9.71600        0.84000
H          2.06900        7.89600       -0.36300
H          0.58100        9.37200       -1.40700
H          1.28500        8.00900        1.23500
H         -0.03800        7.10300       -1.38900
C          0.43700       11.82100        0.09900
C          1.10100       13.10600        0.35300
H         -0.60000       11.88000       -0.21700
H          2.15000       10.63900        0.41300
O          0.22400       14.10900        0.17500
O          2.26700       13.29500        0.63400
H          0.75000       14.92400        0.31000
