39

O          1.82200       -0.66100        0.36500
C          0.56100       -0.19100        0.46400
O         -0.38600       -0.95600        0.56800
C          0.40900        1.30300        0.40100
H          2.53800       -0.01400        0.29400
C         -0.85500        1.75700        0.50800
C         -1.17400        3.06900        0.38200
C         -0.19400        3.98900        0.12400
C          1.08000        3.51200        0.07400
C          1.38600        2.20800        0.21000
C         -0.36700        5.45200       -0.31900
Br        -3.03000        3.40600        0.51800
H         -1.65900        1.03500        0.66700
H          2.43100        1.94300        0.11300
F          2.09900        4.35800       -0.19400
O          0.26500        6.50500        0.47900
C         -1.45300        7.50500       -0.82300
C         -1.73900        6.04400       -0.57000
C          0.30300        9.08900        0.24600
H         -2.27100        5.58000       -1.40400
H         -1.51700        7.76500       -1.88500
H         -2.21700        8.09200       -0.30900
H         -2.34800        6.00500        0.33700
H          0.62700        7.59700       -1.19500
C         -0.02000        7.69600       -0.30700
H          0.15100        5.47200       -1.29400
C         -0.65000        9.93600        0.70900
C         -0.41900       11.25600        0.84200
C          0.78900       11.76300        0.53200
C          1.78300       10.92900        0.17400
C          1.54000        9.60800        0.02900
C          1.03500       13.23000        0.50100
H         -1.23600       11.90900        1.14300
H         -1.66000        9.59500        0.91600
H          2.34200        8.97300       -0.33800
H          2.77300       11.32000       -0.06500
O         -0.09800       13.94700        0.37300
O          2.12500       13.78100        0.47400
H          0.21300       14.86700        0.25000
