26

O          1.18000        0.28900       -0.00700
C         -0.04500        0.84900        0.12000
O         -1.01600        0.11800        0.23400
C         -0.10400        2.35500        0.13300
H          1.94000        0.90000       -0.04300
C         -1.27600        3.04100        0.16700
C         -1.24300        4.39100        0.25100
C         -0.09000        5.10000        0.26600
C          1.08400        4.42400        0.16000
C          1.04400        3.07100        0.11700
N         -0.08500        6.46500        0.44100
H         -2.18000        4.94200        0.32000
Br        -3.00500        2.27600        0.10600
F          2.23500        2.42600        0.07400
C          2.47000        5.06100        0.05300
C          2.60000        6.51600       -0.38900
H          2.42200        7.19500        0.45000
H          3.61600        6.70900       -0.74700
H          1.91700        6.76100       -1.20900
H          3.03600        4.48800       -0.69500
H          2.99600        4.93500        1.00800
N         -0.86300        7.15600       -0.24900
C         -0.62400        8.49400       -0.03800
O         -1.74700        9.22800       -0.17100
O          0.43000        9.05500        0.23000
H         -1.42200       10.13300        0.01500
