31

O          1.16700       -0.10800       -0.25700
C         -0.03200        0.43900        0.04800
O         -1.01600       -0.23400        0.30800
C         -0.02700        1.92500       -0.00500
H          1.82300        0.53900       -0.59300
C         -1.17000        2.52000       -0.40100
C         -1.21700        3.85600       -0.52400
C         -0.14000        4.63300       -0.25700
C          0.99200        4.01700        0.15800
C          1.05300        2.67700        0.30100
C         -0.25000        6.12700       -0.46500
F         -2.36900        4.41900       -0.95000
H         -2.06000        1.94100       -0.64100
O          2.24500        2.13000        0.74300
H          1.89100        4.58400        0.38900
C          0.89500        7.04400       -0.07200
N          0.12800        8.24300        0.17300
N         -1.15100        7.92800        0.55800
N         -1.35000        6.70800        0.33300
C          0.56400        9.54500        0.06200
H          1.63700        7.14600       -0.87100
H          1.39400        6.74100        0.85600
H         -0.48400        6.30000       -1.52600
H          2.10700        1.37500        1.34900
C         -0.24100       10.61600        0.08300
C          0.25000       11.98800       -0.01100
H         -1.31400       10.49600        0.16300
H          1.64100        9.64700       -0.06100
O         -0.79600       12.83100        0.00300
O          1.40300       12.36400       -0.08200
H         -0.40300       13.72600       -0.03600
