
 OpenBabel11042013043D

 49 52  0  0  1  0  0  0  0  0999 V2000
    1.6290   -1.7130    0.3780 O   0  0  0  0  0  0  0  0  0  0  0  0
    0.4550   -1.1410    0.0520 C   0  0  0  0  0  0  0  0  0  0  0  0
   -0.4990   -1.8270   -0.2920 O   0  0  0  0  0  0  0  0  0  0  0  0
    0.4110    0.3620    0.1100 C   0  0  2  0  0  0  0  0  0  0  0  0
    2.2430   -1.1240    0.8380 H   0  0  0  0  0  0  0  0  0  0  0  0
   -0.8640    0.8220    0.1560 C   0  0  0  0  0  0  0  0  0  0  0  0
   -1.1390    2.1310    0.0390 C   0  0  0  0  0  0  0  0  0  0  0  0
   -0.1410    3.0220   -0.1260 C   0  0  1  0  0  0  0  0  0  0  0  0
    1.1270    2.5740   -0.0550 C   0  0  0  0  0  0  0  0  0  0  0  0
    1.4380    1.2590    0.0470 C   0  0  2  0  0  0  0  0  0  0  0  0
   -0.4280    4.4590   -0.4760 C   0  0  2  0  0  0  0  0  0  0  0  0
   -2.1810    2.4470    0.0180 H   0  0  0  0  0  0  0  0  0  0  0  0
   -1.7130    0.1410    0.2290 H   0  0  0  0  0  0  0  0  0  0  0  0
    2.9190    0.9820   -0.0370 C   0  0  0  0  0  0  0  0  0  0  0  0
    1.9410    3.2900   -0.1520 H   0  0  0  0  0  0  0  0  0  0  0  0
    0.5820    5.5200   -0.0930 C   0  0  0  0  0  0  0  0  0  0  0  0
   -0.3080    6.6210    0.1070 N   0  0  0  0  0  0  0  0  0  0  0  0
   -1.5900    6.1900    0.3380 N   0  0  0  0  0  0  0  0  0  0  0  0
   -1.6730    4.9580    0.1370 N   0  0  0  0  0  0  0  0  0  0  0  0
   -0.0150    7.9650    0.1490 C   0  0  2  0  0  0  0  0  0  0  0  0
    1.0850    5.3250    0.8610 H   0  0  0  0  0  0  0  0  0  0  0  0
    1.3130    5.7010   -0.8860 H   0  0  0  0  0  0  0  0  0  0  0  0
   -0.5690    4.4940   -1.5670 H   0  0  0  0  0  0  0  0  0  0  0  0
    3.1590    0.0220   -0.4930 H   0  0  0  0  0  0  0  0  0  0  0  0
    3.3720    1.0480    0.9590 H   0  0  0  0  0  0  0  0  0  0  0  0
    3.4180    1.7260   -0.6730 H   0  0  0  0  0  0  0  0  0  0  0  0
   -1.0080    8.8080    0.4930 C   0  0  0  0  0  0  0  0  0  0  0  0
   -0.8190   10.1310    0.5010 C   0  0  0  0  0  0  0  0  0  0  0  0
    0.3500   10.6930    0.1070 C   0  0  1  0  0  0  0  0  0  0  0  0
    1.3640    9.8440   -0.1930 C   0  0  0  0  0  0  0  0  0  0  0  0
    1.1920    8.4990   -0.1710 C   0  0  0  0  0  0  0  0  0  0  0  0
    0.4040   12.1690    0.0090 C   0  0  1  0  0  0  0  0  0  0  0  0
   -1.6680   10.7230    0.8150 H   0  0  0  0  0  0  0  0  0  0  0  0
   -1.9920    8.4520    0.7590 H   0  0  0  0  0  0  0  0  0  0  0  0
    2.0260    7.8670   -0.4340 H   0  0  0  0  0  0  0  0  0  0  0  0
    2.3430   10.2280   -0.4890 H   0  0  0  0  0  0  0  0  0  0  0  0
   -0.7480   12.8350   -0.2700 C   0  0  0  0  0  0  0  0  0  0  0  0
   -0.8220   14.1720   -0.2800 C   0  0  0  0  0  0  0  0  0  0  0  0
    0.2850   14.8980   -0.0620 C   0  0  2  0  0  0  0  0  0  0  0  0
    1.4640   14.2710    0.1400 C   0  0  0  0  0  0  0  0  0  0  0  0
    1.5210   12.9180    0.1810 C   0  0  0  0  0  0  0  0  0  0  0  0
    0.1930   16.3730   -0.0410 C   0  0  0  0  0  0  0  0  0  0  0  0
   -1.7880   14.6330   -0.4620 H   0  0  0  0  0  0  0  0  0  0  0  0
   -1.6770   12.3110   -0.4690 H   0  0  0  0  0  0  0  0  0  0  0  0
    2.4840   12.4510    0.3790 H   0  0  0  0  0  0  0  0  0  0  0  0
    2.3720   14.8520    0.2910 H   0  0  0  0  0  0  0  0  0  0  0  0
   -1.0800   16.8290    0.0100 O   0  0  0  0  0  0  0  0  0  0  0  0
    1.1260   17.1560   -0.0440 O   0  0  0  0  0  0  0  0  0  0  0  0
   -0.9840   17.8030    0.0420 H   0  0  0  0  0  0  0  0  0  0  0  0
  1  5  1  0  0  0  0
  2  1  1  0  0  0  0
  3  2  2  0  0  0  0
  4  2  1  6  0  0  0
  4 10  5  0  0  0  0
  6  4  5  0  0  0  0
  6  7  5  0  0  0  0
  6 13  1  0  0  0  0
  7 12  1  0  0  0  0
  8  7  5  6  0  0  0
  8 11  1  0  0  0  0
  9  8  5  0  0  0  0
  9 15  1  0  0  0  0
 10  9  5  0  0  0  0
 10 14  1  6  0  0  0
 11 19  1  0  0  0  0
 11 23  1  6  0  0  0
 14 24  1  0  0  0  0
 14 25  1  0  0  0  0
 14 26  1  0  0  0  0
 16 11  1  0  0  0  0
 16 21  1  0  0  0  0
 16 22  1  0  0  0  0
 17 16  1  0  0  0  0
 18 17  1  0  0  0  0
 19 18  2  0  0  0  0
 20 17  1  6  0  0  0
 20 31  5  0  0  0  0
 27 20  5  0  0  0  0
 27 28  5  0  0  0  0
 27 34  1  0  0  0  0
 28 33  1  0  0  0  0
 29 28  5  6  0  0  0
 29 32  1  0  0  0  0
 30 29  5  0  0  0  0
 30 36  1  0  0  0  0
 31 30  5  0  0  0  0
 31 35  1  0  0  0  0
 32 37  5  1  0  0  0
 32 41  5  0  0  0  0
 37 38  5  0  0  0  0
 37 44  1  0  0  0  0
 38 43  1  0  0  0  0
 39 38  5  0  0  0  0
 39 42  1  1  0  0  0
 40 39  5  0  0  0  0
 40 46  1  0  0  0  0
 41 40  5  0  0  0  0
 41 45  1  0  0  0  0
 42 48  2  0  0  0  0
 47 42  1  0  0  0  0
 49 47  1  0  0  0  0
M  END
