
 OpenBabel11042013043D

 23 23  0  0  1  0  0  0  0  0999 V2000
    2.5460    1.7200   -0.0970 O   0  0  0  0  0  0  0  0  0  0  0  0
    1.3540    2.1970    0.3270 C   0  0  0  0  0  0  0  0  0  0  0  0
    0.5220    1.4520    0.8290 O   0  0  0  0  0  0  0  0  0  0  0  0
    1.1220    3.6600    0.1110 C   0  0  1  0  0  0  0  0  0  0  0  0
    3.1770    2.3960   -0.4110 H   0  0  0  0  0  0  0  0  0  0  0  0
   -0.1280    4.1510   -0.0740 C   0  0  1  0  0  0  0  0  0  0  0  0
   -0.3190    5.4930   -0.2280 C   0  0  1  0  0  0  0  0  0  0  0  0
    0.7530    6.3280   -0.1830 C   0  0  1  0  0  0  0  0  0  0  0  0
    2.0160    5.8420   -0.0250 C   0  0  1  0  0  0  0  0  0  0  0  0
    2.1650    4.5070    0.1230 C   0  0  2  0  0  0  0  0  0  0  0  0
    0.5610    7.7930   -0.3100 C   0  0  0  0  0  0  0  0  0  0  0  0
   -2.0900    6.1530   -0.5470 Br  0  0  0  0  0  0  0  0  0  0  0  0
   -1.2520    3.2650   -0.1370 N   0  0  0  0  0  0  0  0  0  0  0  0
    3.4170    4.0170    0.2860 F   0  0  0  0  0  0  0  0  0  0  0  0
    3.2770    6.6780   -0.0250 C   0  0  0  0  0  0  0  0  0  0  0  0
   -1.1360    2.3440    0.2910 H   0  0  0  0  0  0  0  0  0  0  0  0
   -2.1690    3.6670    0.0370 H   0  0  0  0  0  0  0  0  0  0  0  0
    3.1810    7.6220   -0.5640 H   0  0  0  0  0  0  0  0  0  0  0  0
    4.0970    6.1470   -0.5260 H   0  0  0  0  0  0  0  0  0  0  0  0
    3.5900    6.8960    1.0020 H   0  0  0  0  0  0  0  0  0  0  0  0
   -0.2170    8.2900    0.6690 O   0  0  0  0  0  0  0  0  0  0  0  0
    1.0600    8.5190   -1.1510 O   0  0  0  0  0  0  0  0  0  0  0  0
   -0.3310    9.2360    0.4370 H   0  0  0  0  0  0  0  0  0  0  0  0
  1  5  1  0  0  0  0
  2  1  1  0  0  0  0
  3  2  2  0  0  0  0
  4  2  1  1  0  0  0
  4 10  5  0  0  0  0
  6  4  5  0  0  0  0
  6  7  5  0  0  0  0
  6 13  1  6  0  0  0
  7 12  1  6  0  0  0
  8  7  5  0  0  0  0
  8 11  1  6  0  0  0
  9  8  5  0  0  0  0
  9 15  1  6  0  0  0
 10  9  5  0  0  0  0
 10 14  1  6  0  0  0
 11 22  2  0  0  0  0
 13 16  1  0  0  0  0
 13 17  1  0  0  0  0
 15 18  1  0  0  0  0
 15 19  1  0  0  0  0
 15 20  1  0  0  0  0
 21 11  1  0  0  0  0
 23 21  1  0  0  0  0
M  END
