
 OpenBabel11042013043D

 29 29  0  0  1  0  0  0  0  0999 V2000
    0.4780    0.9270   -1.4680 O   0  0  0  0  0  0  0  0  0  0  0  0
   -0.5300    1.2450   -0.6240 C   0  0  0  0  0  0  0  0  0  0  0  0
   -1.3250    0.4160   -0.2200 O   0  0  0  0  0  0  0  0  0  0  0  0
   -0.5990    2.7050   -0.3180 C   0  0  2  0  0  0  0  0  0  0  0  0
    1.1010    1.6600   -1.6530 H   0  0  0  0  0  0  0  0  0  0  0  0
   -1.8140    3.3070   -0.4030 C   0  0  1  0  0  0  0  0  0  0  0  0
   -1.8690    4.6630   -0.3850 C   0  0  1  0  0  0  0  0  0  0  0  0
   -0.7470    5.3760   -0.1800 C   0  0  1  0  0  0  0  0  0  0  0  0
    0.4460    4.7710    0.0820 C   0  0  2  0  0  0  0  0  0  0  0  0
    0.5300    3.4150   -0.0370 C   0  0  2  0  0  0  0  0  0  0  0  0
   -0.7920    6.8480   -0.3560 C   0  0  0  0  0  0  0  0  0  0  0  0
   -3.4060    5.4710   -0.6820 Cl  0  0  0  0  0  0  0  0  0  0  0  0
   -3.0350    2.5580   -0.5500 C   0  0  0  0  0  0  0  0  0  0  0  0
    2.1120    1.7010    0.7980 C   0  0  0  0  0  0  0  0  0  0  0  0
    1.6620    5.6050    0.5470 C   0  0  0  0  0  0  0  0  0  0  0  0
   -4.0570    2.0130   -0.6210 N   0  0  0  0  0  0  0  0  0  0  0  0
    1.2460    1.1730    1.2000 H   0  0  0  0  0  0  0  0  0  0  0  0
    2.6810    1.0260    0.1480 H   0  0  0  0  0  0  0  0  0  0  0  0
    2.7710    1.9930    1.6200 H   0  0  0  0  0  0  0  0  0  0  0  0
    1.7960    2.8560    0.0210 O   0  0  0  0  0  0  0  0  0  0  0  0
    2.9900    5.4780   -0.1900 C   0  0  0  0  0  0  0  0  0  0  0  0
    3.4360    4.4860   -0.0940 H   0  0  0  0  0  0  0  0  0  0  0  0
    3.7120    6.1750    0.2530 H   0  0  0  0  0  0  0  0  0  0  0  0
    2.8870    5.7210   -1.2500 H   0  0  0  0  0  0  0  0  0  0  0  0
    1.8300    5.3510    1.6030 H   0  0  0  0  0  0  0  0  0  0  0  0
    1.4260    6.6740    0.5710 H   0  0  0  0  0  0  0  0  0  0  0  0
   -1.5300    7.4820    0.5660 O   0  0  0  0  0  0  0  0  0  0  0  0
   -0.2260    7.4560   -1.2490 O   0  0  0  0  0  0  0  0  0  0  0  0
   -1.5410    8.4130    0.2540 H   0  0  0  0  0  0  0  0  0  0  0  0
  1  5  1  0  0  0  0
  2  1  1  0  0  0  0
  3  2  2  0  0  0  0
  4  2  1  6  0  0  0
  4 10  5  0  0  0  0
  6  4  5  0  0  0  0
  6  7  5  0  0  0  0
  6 13  1  6  0  0  0
  7 12  1  6  0  0  0
  8  7  5  0  0  0  0
  8 11  1  6  0  0  0
  9  8  5  0  0  0  0
  9 15  1  1  0  0  0
 10  9  5  0  0  0  0
 10 20  1  6  0  0  0
 11 28  2  0  0  0  0
 13 16  3  0  0  0  0
 14 17  1  0  0  0  0
 14 18  1  0  0  0  0
 14 19  1  0  0  0  0
 14 20  1  0  0  0  0
 15 25  1  0  0  0  0
 15 26  1  0  0  0  0
 21 22  1  0  0  0  0
 21 23  1  0  0  0  0
 21 24  1  0  0  0  0
 21 15  1  0  0  0  0
 27 11  1  0  0  0  0
 29 27  1  0  0  0  0
M  END
