
 OpenBabel11042013033D

 31 32  0  0  1  0  0  0  0  0999 V2000
    1.7220   -0.2980   -0.0000 O   0  0  0  0  0  0  0  0  0  0  0  0
    0.4760    0.2220   -0.0000 C   0  0  0  0  0  0  0  0  0  0  0  0
   -0.5000   -0.5140   -0.0000 O   0  0  0  0  0  0  0  0  0  0  0  0
    0.4020    1.7060   -0.0000 C   0  0  1  0  0  0  0  0  0  0  0  0
    2.4700    0.3170   -0.0000 H   0  0  0  0  0  0  0  0  0  0  0  0
   -0.8180    2.2740   -0.0000 C   0  0  1  0  0  0  0  0  0  0  0  0
   -0.9910    3.6100   -0.0000 C   0  0  1  0  0  0  0  0  0  0  0  0
    0.0910    4.4430   -0.0000 C   0  0  1  0  0  0  0  0  0  0  0  0
    1.3100    3.8390   -0.0000 C   0  0  0  0  0  0  0  0  0  0  0  0
    1.4770    2.5150   -0.0000 C   0  0  0  0  0  0  0  0  0  0  0  0
    0.0300    5.9330   -0.0000 C   0  0  1  0  0  0  0  0  0  0  0  0
   -2.3020    4.0700    0.0000 O   0  0  0  0  0  0  0  0  0  0  0  0
   -1.9420    1.5220   -0.0000 F   0  0  0  0  0  0  0  0  0  0  0  0
    2.5060    2.1780   -0.0000 H   0  0  0  0  0  0  0  0  0  0  0  0
    2.2410    4.3940   -0.0000 H   0  0  0  0  0  0  0  0  0  0  0  0
   -1.1290    6.6390   -0.0000 C   0  0  0  0  0  0  0  0  0  0  0  0
   -1.1470    7.9820   -0.0000 C   0  0  0  0  0  0  0  0  0  0  0  0
    0.0040    8.6840   -0.0000 C   0  0  1  0  0  0  0  0  0  0  0  0
    1.1570    8.0040   -0.0000 C   0  0  0  0  0  0  0  0  0  0  0  0
    1.1720    6.6650   -0.0000 C   0  0  0  0  0  0  0  0  0  0  0  0
    0.0960   10.0410    0.0000 N   0  0  0  0  0  0  0  0  0  0  0  0
   -2.1080    8.4880    0.0000 H   0  0  0  0  0  0  0  0  0  0  0  0
   -2.1060    6.1750   -0.0000 H   0  0  0  0  0  0  0  0  0  0  0  0
    2.1690    6.2520    0.0000 H   0  0  0  0  0  0  0  0  0  0  0  0
    2.1010    8.5480   -0.0000 H   0  0  0  0  0  0  0  0  0  0  0  0
   -0.9580   10.6860   -0.0000 N   0  0  0  0  0  0  0  0  0  0  0  0
   -0.6880   12.0180    0.0000 C   0  0  0  0  0  0  0  0  0  0  0  0
   -2.9420    3.3340    0.0000 H   0  0  0  0  0  0  0  0  0  0  0  0
   -1.8300   12.7280    0.0000 O   0  0  0  0  0  0  0  0  0  0  0  0
    0.3890   12.5980    0.0000 O   0  0  0  0  0  0  0  0  0  0  0  0
   -1.4760   13.6360   -0.0000 H   0  0  0  0  0  0  0  0  0  0  0  0
  1  5  1  0  0  0  0
  2  1  1  0  0  0  0
  3  2  2  0  0  0  0
  4  2  1  1  0  0  0
  4 10  5  0  0  0  0
  6  4  5  0  0  0  0
  6  7  5  0  0  0  0
  6 13  1  6  0  0  0
  7 12  1  6  0  0  0
  8  7  5  0  0  0  0
  8  9  5  6  0  0  0
  8 11  1  0  0  0  0
  9 15  1  0  0  0  0
 10  9  5  0  0  0  0
 10 14  1  0  0  0  0
 11 16  5  1  0  0  0
 11 20  5  0  0  0  0
 12 28  1  0  0  0  0
 16 17  5  0  0  0  0
 16 23  1  0  0  0  0
 17 22  1  0  0  0  0
 18 17  5  0  0  0  0
 18 21  1  6  0  0  0
 19 18  5  0  0  0  0
 19 25  1  0  0  0  0
 20 19  5  0  0  0  0
 20 24  1  0  0  0  0
 26 21  2  0  0  0  0
 27 26  1  0  0  0  0
 27 30  2  0  0  0  0
 29 27  1  0  0  0  0
 31 29  1  0  0  0  0
M  END
