
 OpenBabel11032017293D

 50 52  0  0  1  0  0  0  0  0999 V2000
    1.8670   -0.1180    0.0290 O   0  0  0  0  0  0  0  0  0  0  0  0
    0.5930    0.3340   -0.0110 C   0  0  0  0  0  0  0  0  0  0  0  0
   -0.2990   -0.4950   -0.1800 O   0  0  0  0  0  0  0  0  0  0  0  0
    0.3880    1.8510    0.1180 C   0  0  2  0  0  0  0  0  0  0  0  0
    2.5490    0.4830    0.3430 H   0  0  0  0  0  0  0  0  0  0  0  0
   -0.8540    2.4340    0.2760 C   0  0  1  0  0  0  0  0  0  0  0  0
   -0.9510    3.8130    0.3590 C   0  0  2  0  0  0  0  0  0  0  0  0
    0.1680    4.6050    0.1950 C   0  0  1  0  0  0  0  0  0  0  0  0
    1.3620    3.9850    0.0800 C   0  0  0  0  0  0  0  0  0  0  0  0
    1.4740    2.6500    0.0550 C   0  0  0  0  0  0  0  0  0  0  0  0
    0.2210    6.1280   -0.1720 C   0  0  2  0  0  0  0  0  0  0  0  0
   -3.1510    4.6750   -0.2200 C   0  0  0  0  0  0  0  0  0  0  0  0
   -2.0440    1.4490    0.2990 C   0  0  0  0  0  0  0  0  0  0  0  0
    2.4840    2.2790   -0.0780 H   0  0  0  0  0  0  0  0  0  0  0  0
    2.2700    4.5740   -0.0340 H   0  0  0  0  0  0  0  0  0  0  0  0
    0.7800    7.1440    0.7180 O   0  0  0  0  0  0  0  0  0  0  0  0
   -0.7080    8.2270   -0.7930 C   0  0  0  0  0  0  0  0  0  0  0  0
   -1.0590    6.7780   -0.6050 C   0  0  0  0  0  0  0  0  0  0  0  0
    0.7370    9.7540    0.7290 C   0  0  1  0  0  0  0  0  0  0  0  0
   -1.7620    6.7570    0.2300 H   0  0  0  0  0  0  0  0  0  0  0  0
   -0.6230    8.5120   -1.8440 H   0  0  0  0  0  0  0  0  0  0  0  0
   -1.5410    8.7990   -0.3730 H   0  0  0  0  0  0  0  0  0  0  0  0
   -1.4900    6.3360   -1.5050 H   0  0  0  0  0  0  0  0  0  0  0  0
    1.4380    8.3730   -0.8000 H   0  0  0  0  0  0  0  0  0  0  0  0
    0.6270    8.4040   -0.0590 C   0  0  1  0  0  0  0  0  0  0  0  0
    0.8850    6.1470   -1.0510 H   0  0  0  0  0  0  0  0  0  0  0  0
   -3.5280    1.7680    0.2420 C   0  0  0  0  0  0  0  0  0  0  0  0
   -3.8630    2.3290    1.1160 H   0  0  0  0  0  0  0  0  0  0  0  0
   -3.7880    2.2710   -0.6930 H   0  0  0  0  0  0  0  0  0  0  0  0
   -4.0980    0.8300    0.2250 H   0  0  0  0  0  0  0  0  0  0  0  0
   -1.9160    0.7890    1.1660 H   0  0  0  0  0  0  0  0  0  0  0  0
   -1.9430    0.8590   -0.6210 H   0  0  0  0  0  0  0  0  0  0  0  0
   -4.0840    4.1970    0.0820 H   0  0  0  0  0  0  0  0  0  0  0  0
   -2.8590    4.3730   -1.2280 H   0  0  0  0  0  0  0  0  0  0  0  0
   -3.4100    5.7350   -0.2060 H   0  0  0  0  0  0  0  0  0  0  0  0
   -2.1440    4.4110    0.7540 O   0  0  0  0  0  0  0  0  0  0  0  0
    1.8460   10.6980    0.2270 C   0  0  0  0  0  0  0  0  0  0  0  0
    1.4350   12.0670    0.7690 C   0  0  2  0  0  0  0  0  0  0  0  0
   -0.0310   11.9770    0.9400 N   0  0  0  0  0  0  0  0  0  0  0  0
   -0.4220   10.6530    0.5420 N   0  0  0  0  0  0  0  0  0  0  0  0
    1.8100   13.2770   -0.0880 C   0  0  0  0  0  0  0  0  0  0  0  0
   -1.2170   10.3170    1.0930 H   0  0  0  0  0  0  0  0  0  0  0  0
   -0.4620   12.6970    0.3380 H   0  0  0  0  0  0  0  0  0  0  0  0
    2.8280   10.4000    0.6090 H   0  0  0  0  0  0  0  0  0  0  0  0
    1.8700   12.2370    1.7590 H   0  0  0  0  0  0  0  0  0  0  0  0
    1.9020   10.7120   -0.8700 H   0  0  0  0  0  0  0  0  0  0  0  0
    0.8800    9.5540    1.7970 H   0  0  0  0  0  0  0  0  0  0  0  0
    0.7780   14.1420   -0.2990 O   0  0  0  0  0  0  0  0  0  0  0  0
    2.9230   13.5490   -0.5180 O   0  0  0  0  0  0  0  0  0  0  0  0
    1.1920   14.9190   -0.7420 H   0  0  0  0  0  0  0  0  0  0  0  0
  1  5  1  0  0  0  0
  2  1  1  0  0  0  0
  3  2  2  0  0  0  0
  4  2  1  6  0  0  0
  4 10  5  0  0  0  0
  6  4  5  0  0  0  0
  6  7  5  0  0  0  0
  6 13  1  6  0  0  0
  7 36  1  1  0  0  0
  8  7  5  0  0  0  0
  8  9  5  6  0  0  0
  8 11  1  0  0  0  0
  9 15  1  0  0  0  0
 10  9  5  0  0  0  0
 10 14  1  0  0  0  0
 11 18  1  0  0  0  0
 11 26  1  6  0  0  0
 12 33  1  0  0  0  0
 12 34  1  0  0  0  0
 12 35  1  0  0  0  0
 12 36  1  0  0  0  0
 13 31  1  0  0  0  0
 13 32  1  0  0  0  0
 16 11  1  0  0  0  0
 17 25  1  0  0  0  0
 17 22  1  0  0  0  0
 18 17  1  0  0  0  0
 18 23  1  0  0  0  0
 19 25  1  0  0  0  0
 19 40  1  0  0  0  0
 19 47  1  1  0  0  0
 20 18  1  0  0  0  0
 21 17  1  0  0  0  0
 25 16  1  0  0  0  0
 25 24  1  6  0  0  0
 27 28  1  0  0  0  0
 27 29  1  0  0  0  0
 27 30  1  0  0  0  0
 27 13  1  0  0  0  0
 37 19  1  0  0  0  0
 37 44  1  0  0  0  0
 37 46  1  0  0  0  0
 38 37  1  0  0  0  0
 38 45  1  1  0  0  0
 39 38  1  0  0  0  0
 40 39  1  0  0  0  0
 41 38  1  0  0  0  0
 41 49  2  0  0  0  0
 42 40  1  0  0  0  0
 43 39  1  0  0  0  0
 48 41  1  0  0  0  0
 50 48  1  0  0  0  0
M  END
