31

O          1.72200       -0.29800       -0.00000
C          0.47600        0.22200       -0.00000
O         -0.50000       -0.51400       -0.00000
C          0.40200        1.70600       -0.00000
H          2.47000        0.31700       -0.00000
C         -0.81800        2.27400       -0.00000
C         -0.99100        3.61000       -0.00000
C          0.09100        4.44300       -0.00000
C          1.31000        3.83900       -0.00000
C          1.47700        2.51500       -0.00000
C          0.03000        5.93300       -0.00000
O         -2.30200        4.07000        0.00000
F         -1.94200        1.52200       -0.00000
H          2.50600        2.17800       -0.00000
H          2.24100        4.39400       -0.00000
C         -1.12900        6.63900       -0.00000
C         -1.14700        7.98200       -0.00000
C          0.00400        8.68400       -0.00000
C          1.15700        8.00400       -0.00000
C          1.17200        6.66500       -0.00000
N          0.09600       10.04100        0.00000
H         -2.10800        8.48800        0.00000
H         -2.10600        6.17500       -0.00000
H          2.16900        6.25200        0.00000
H          2.10100        8.54800       -0.00000
N         -0.95800       10.68600       -0.00000
C         -0.68800       12.01800        0.00000
H         -2.94200        3.33400        0.00000
O         -1.83000       12.72800        0.00000
O          0.38900       12.59800        0.00000
H         -1.47600       13.63600       -0.00000
