33

O          1.18000        0.67800       -0.10200
C         -0.02200        1.29500       -0.06800
O         -1.06200        0.64900       -0.08800
C          0.00800        2.78900        0.00300
H          1.95500        1.27300       -0.07400
C         -1.17500        3.44300        0.01700
C         -1.21400        4.79200        0.09800
C         -0.07000        5.51100        0.16800
C          1.10900        4.85100        0.14100
C          1.14700        3.50800        0.05800
C         -0.07900        6.94000        0.28000
H         -2.18100        5.29000        0.10700
H         -2.11300        2.88700       -0.03400
F          2.35000        2.89900        0.04100
H          2.04800        5.39700        0.18700
C         -0.02000        8.14100        0.36000
C          0.09200        9.68600        0.38800
C          0.13900       10.88000        0.23100
C          0.08900       12.26400       -0.25900
C          1.26800       13.18300        0.01300
C          0.69900       14.51700       -0.47800
N         -0.77500       14.39600       -0.27100
N         -0.98700       13.07600        0.31700
C          1.24400       15.78800        0.16600
H         -1.89600       12.68800        0.05400
H         -1.08600       15.16200        0.34200
H          1.53800       13.22200        1.07700
H          0.87500       14.61900       -1.55600
H          2.16000       12.89000       -0.55000
H         -0.06500       12.19800       -1.34600
O          0.30700       16.76400        0.27400
O          2.40400       16.01800        0.46400
H          0.80000       17.56400        0.55300
