46

O          1.62700        0.99300       -0.01100
C          0.97000        2.04100        0.53200
O         -0.12200        1.87300        1.04800
C          1.67700        3.33600        0.34800
H          0.99100        0.25500        0.12200
C          0.92300        4.44600        0.44200
C          1.41300        5.69700        0.22800
C          2.76400        5.84300       -0.01900
C          3.49700        4.69700       -0.08600
C          2.98500        3.46400        0.06200
C          3.53900        7.17100       -0.29700
C          0.38400        6.83700        0.18500
H         -0.13100        4.29800        0.66300
O          3.83200        2.38200       -0.10900
H          4.55700        4.72900       -0.31100
H          3.32400        1.54800       -0.17600
C         -1.09200        6.42800       -0.03700
H         -1.51500        5.95000        0.85600
H         -1.20000        5.73100       -0.87800
H         -1.71600        7.30000       -0.25300
H          0.63400        7.50400       -0.64800
H          0.43400        7.41400        1.11400
C          5.07900        7.17800       -0.10200
C          5.43200        8.64200       -0.35000
N          4.32000        9.34300        0.33300
N          3.20300        8.36200        0.50400
C          6.85300        9.18400       -0.08200
H          2.33600        8.77100        0.14900
H          4.64900        9.63600        1.25900
H          5.35300        6.86600        0.91700
H          5.28900        8.81200       -1.42900
H          5.59400        6.53200       -0.82000
H          3.33700        7.40600       -1.35300
C          7.05700       10.52400       -0.03000
C          8.29000       11.05800        0.11100
C          9.36900       10.25500        0.20500
C          9.18800        8.91700        0.19000
C          7.94800        8.39200        0.05100
C         10.76000       10.79100        0.30600
H          8.40500       12.14000        0.12400
H          6.22300       11.21100       -0.13600
H          7.86000        7.30900        0.02000
H         10.04600        8.25000        0.27000
O         10.82300       12.13700        0.24700
O         11.78300       10.13200        0.40100
H         11.78400       12.33100        0.28700
