
 OpenBabel11042013043D

 46 48  0  0  1  0  0  0  0  0999 V2000
    1.6270    0.9930   -0.0110 O   0  0  0  0  0  0  0  0  0  0  0  0
    0.9700    2.0410    0.5320 C   0  0  0  0  0  0  0  0  0  0  0  0
   -0.1220    1.8730    1.0480 O   0  0  0  0  0  0  0  0  0  0  0  0
    1.6770    3.3360    0.3480 C   0  0  2  0  0  0  0  0  0  0  0  0
    0.9910    0.2550    0.1220 H   0  0  0  0  0  0  0  0  0  0  0  0
    0.9230    4.4460    0.4420 C   0  0  0  0  0  0  0  0  0  0  0  0
    1.4130    5.6970    0.2280 C   0  0  1  0  0  0  0  0  0  0  0  0
    2.7640    5.8430   -0.0190 C   0  0  1  0  0  0  0  0  0  0  0  0
    3.4970    4.6970   -0.0860 C   0  0  0  0  0  0  0  0  0  0  0  0
    2.9850    3.4640    0.0620 C   0  0  2  0  0  0  0  0  0  0  0  0
    3.5390    7.1710   -0.2970 C   0  0  2  0  0  0  0  0  0  0  0  0
    0.3840    6.8370    0.1850 C   0  0  0  0  0  0  0  0  0  0  0  0
   -0.1310    4.2980    0.6630 H   0  0  0  0  0  0  0  0  0  0  0  0
    3.8320    2.3820   -0.1090 O   0  0  0  0  0  0  0  0  0  0  0  0
    4.5570    4.7290   -0.3110 H   0  0  0  0  0  0  0  0  0  0  0  0
    3.3240    1.5480   -0.1760 H   0  0  0  0  0  0  0  0  0  0  0  0
   -1.0920    6.4280   -0.0370 C   0  0  0  0  0  0  0  0  0  0  0  0
   -1.5150    5.9500    0.8560 H   0  0  0  0  0  0  0  0  0  0  0  0
   -1.2000    5.7310   -0.8780 H   0  0  0  0  0  0  0  0  0  0  0  0
   -1.7160    7.3000   -0.2530 H   0  0  0  0  0  0  0  0  0  0  0  0
    0.6340    7.5040   -0.6480 H   0  0  0  0  0  0  0  0  0  0  0  0
    0.4340    7.4140    1.1140 H   0  0  0  0  0  0  0  0  0  0  0  0
    5.0790    7.1780   -0.1020 C   0  0  0  0  0  0  0  0  0  0  0  0
    5.4320    8.6420   -0.3500 C   0  0  1  0  0  0  0  0  0  0  0  0
    4.3200    9.3430    0.3330 N   0  0  0  0  0  0  0  0  0  0  0  0
    3.2030    8.3620    0.5040 N   0  0  0  0  0  0  0  0  0  0  0  0
    6.8530    9.1840   -0.0820 C   0  0  2  0  0  0  0  0  0  0  0  0
    2.3360    8.7710    0.1490 H   0  0  0  0  0  0  0  0  0  0  0  0
    4.6490    9.6360    1.2590 H   0  0  0  0  0  0  0  0  0  0  0  0
    5.3530    6.8660    0.9170 H   0  0  0  0  0  0  0  0  0  0  0  0
    5.2890    8.8120   -1.4290 H   0  0  0  0  0  0  0  0  0  0  0  0
    5.5940    6.5320   -0.8200 H   0  0  0  0  0  0  0  0  0  0  0  0
    3.3370    7.4060   -1.3530 H   0  0  0  0  0  0  0  0  0  0  0  0
    7.0570   10.5240   -0.0300 C   0  0  0  0  0  0  0  0  0  0  0  0
    8.2900   11.0580    0.1110 C   0  0  0  0  0  0  0  0  0  0  0  0
    9.3690   10.2550    0.2050 C   0  0  1  0  0  0  0  0  0  0  0  0
    9.1880    8.9170    0.1900 C   0  0  0  0  0  0  0  0  0  0  0  0
    7.9480    8.3920    0.0510 C   0  0  0  0  0  0  0  0  0  0  0  0
   10.7600   10.7910    0.3060 C   0  0  0  0  0  0  0  0  0  0  0  0
    8.4050   12.1400    0.1240 H   0  0  0  0  0  0  0  0  0  0  0  0
    6.2230   11.2110   -0.1360 H   0  0  0  0  0  0  0  0  0  0  0  0
    7.8600    7.3090    0.0200 H   0  0  0  0  0  0  0  0  0  0  0  0
   10.0460    8.2500    0.2700 H   0  0  0  0  0  0  0  0  0  0  0  0
   10.8230   12.1370    0.2470 O   0  0  0  0  0  0  0  0  0  0  0  0
   11.7830   10.1320    0.4010 O   0  0  0  0  0  0  0  0  0  0  0  0
   11.7840   12.3310    0.2870 H   0  0  0  0  0  0  0  0  0  0  0  0
  1  5  1  0  0  0  0
  2  1  1  0  0  0  0
  3  2  2  0  0  0  0
  4  2  1  6  0  0  0
  4 10  5  0  0  0  0
  6  4  5  0  0  0  0
  6  7  5  0  0  0  0
  6 13  1  0  0  0  0
  7 12  1  6  0  0  0
  8  7  5  0  0  0  0
  8  9  5  6  0  0  0
  8 11  1  0  0  0  0
  9 15  1  0  0  0  0
 10  9  5  0  0  0  0
 10 14  1  6  0  0  0
 11 26  1  0  0  0  0
 11 33  1  6  0  0  0
 12 21  1  0  0  0  0
 12 22  1  0  0  0  0
 14 16  1  0  0  0  0
 17 18  1  0  0  0  0
 17 19  1  0  0  0  0
 17 20  1  0  0  0  0
 17 12  1  0  0  0  0
 23 11  1  0  0  0  0
 23 30  1  0  0  0  0
 23 32  1  0  0  0  0
 24 23  1  0  0  0  0
 24 31  1  6  0  0  0
 25 24  1  0  0  0  0
 26 25  1  0  0  0  0
 27 24  1  0  0  0  0
 27 34  5  6  0  0  0
 27 38  5  0  0  0  0
 28 26  1  0  0  0  0
 29 25  1  0  0  0  0
 34 35  5  0  0  0  0
 34 41  1  0  0  0  0
 35 40  1  0  0  0  0
 36 35  5  0  0  0  0
 36 39  1  6  0  0  0
 37 36  5  0  0  0  0
 37 43  1  0  0  0  0
 38 37  5  0  0  0  0
 38 42  1  0  0  0  0
 39 45  2  0  0  0  0
 44 39  1  0  0  0  0
 46 44  1  0  0  0  0
M  END
