47

O          0.62500       -0.67700        0.32900
C         -0.23700        0.04500       -0.40400
O         -1.15800       -0.48800       -1.00700
C         -0.05900        1.52400       -0.31900
H          1.10500       -0.12900        0.96900
C         -1.25500        2.14200       -0.25600
C         -1.37400        3.48100       -0.21300
C         -0.28200        4.27000       -0.23300
C          0.90800        3.62800       -0.31000
C          1.08300        2.28100       -0.34400
C         -0.34000        5.74600       -0.04100
H         -2.37900        3.88100       -0.14000
H         -2.18800        1.56000       -0.23400
C          2.57700        1.92300       -0.41600
H          1.81500        4.21800       -0.33900
C         -1.50700        6.40000        0.20800
C         -1.52100        7.68200        0.62200
C         -0.36100        8.33600        0.78900
C          0.79200        7.76000        0.42300
C          0.79600        6.49000        0.00100
C         -0.30400        9.67500        1.20500
H         -2.46900        8.17300        0.83200
H         -2.47200        5.91500        0.12600
H          1.77700        6.11000       -0.25100
H          1.73000        8.31000        0.47800
C          3.19500        0.71100        0.25300
H          2.88400        0.61500        1.29700
H          2.98500       -0.20200       -0.30600
H          4.28600        0.83000        0.26800
H          2.88300        1.95000       -1.46700
H          3.13100        2.74900        0.06400
C         -0.11300       10.84500        1.04500
C          0.05600       11.94700        0.14100
O          0.66500       13.10800        0.69300
C         -1.21000       13.87400       -0.42900
C         -1.29300       12.36900       -0.42000
C          0.61500       15.54900        0.22100
H         -2.14100       12.03200        0.19100
H         -1.79400       14.26900        0.41000
H         -1.60300       14.30300       -1.35400
H         -1.43400       11.93900       -1.41800
H          0.81500       13.97400       -1.16500
C          0.27300       14.13900       -0.22200
H          0.70600       11.60800       -0.67800
O         -0.29300       16.46900       -0.18000
O          1.62900       15.90800        0.79800
H          0.07500       17.30900        0.15800
