55

O          1.56100       -1.35900        0.21600
C          0.28800       -0.92300        0.36400
O         -0.61600       -1.70000        0.62500
C          0.07100        0.54100        0.15500
H          2.20800       -0.70900       -0.10000
C         -1.20800        0.97100        0.10600
C         -1.48100        2.26700       -0.10800
C         -0.49700        3.16000       -0.27700
C          0.78300        2.71800       -0.22800
C          1.07000        1.43000        0.00900
C         -0.82100        4.61700       -0.54300
H         -2.52300        2.60000       -0.12700
H         -2.04200        0.28600        0.23800
H          2.12200        1.17300        0.07200
H          1.64300        3.36900       -0.36900
C          0.31200        5.57100       -0.29000
N         -0.21200        6.41500        0.73400
N         -1.53300        6.16400        0.96300
N         -1.88900        5.13500        0.33800
C          0.18200        7.78000        0.66600
H          0.51800        6.13700       -1.20500
H          1.25200        5.19700        0.11200
H         -1.14100        4.72300       -1.58600
C          1.58500        8.03300        0.17000
N          1.72500        9.39000        0.61700
N          1.03500        9.45900        1.84900
N          0.22000        8.49400        1.94700
C          1.31900       10.40000       -0.25300
H          1.75500        7.92700       -0.90400
H          2.32900        7.43600        0.71500
H         -0.54100        8.24100       -0.01600
C          0.02400       10.78600       -0.31700
C         -0.29100       12.02700       -0.69400
C          0.73200       12.87900       -0.90600
C          1.96200       12.40600       -1.21600
C          2.26300       11.14100       -0.86400
C          0.60100       14.16600       -0.13800
H         -1.30400       12.36400       -0.49200
H         -0.79100       10.22200        0.12000
H          3.30100       10.82000       -0.88500
H          2.79000       13.06200       -1.46600
C          1.81700       15.05500       -0.00000
C          1.23200       16.28900        0.66100
N         -0.24700       16.13200        0.58200
N         -0.48500       15.09100       -0.41300
C          1.66600       17.55200       -0.05900
H         -1.37400       14.62000       -0.21300
H         -0.64600       17.03200        0.29100
H          2.26500       15.27000       -0.97700
H          1.53500       16.36000        1.71200
H          2.57600       14.58100        0.63600
H          0.42100       13.79400        0.89300
O          0.65500       18.43000       -0.25300
O          2.79800       17.82400       -0.42800
H          1.07300       19.15900       -0.75100
