
 OpenBabel02032115563D

 34 35  0  0  1  0  0  0  0  0999 V2000
    1.5570    0.1460   -0.0220 O   0  0  0  0  0  0  0  0  0  0  0  0
    0.5540    1.0210   -0.1240 C   0  0  0  0  0  0  0  0  0  0  0  0
   -0.4710    0.3940   -0.3070 O   0  0  0  0  0  0  0  0  0  0  0  0
    0.2940    2.4530   -0.0690 C   0  0  1  0  0  0  0  0  0  0  0  0
    2.5030    0.4170    0.0000 H   0  0  0  0  0  0  0  0  0  0  0  0
   -0.9190    2.9780   -0.3130 C   0  0  0  0  0  0  0  0  0  0  0  0
   -1.1590    4.2950   -0.2550 C   0  0  0  0  0  0  0  0  0  0  0  0
   -0.2130    5.2180    0.0370 C   0  0  1  0  0  0  0  0  0  0  0  0
    1.0120    4.6720    0.3110 C   0  0  2  0  0  0  0  0  0  0  0  0
    1.2390    3.3360    0.2580 C   0  0  0  0  0  0  0  0  0  0  0  0
   -0.5260    6.5730    0.0330 C   0  0  2  0  0  0  0  0  0  0  0  0
   -2.1740    4.5730   -0.5110 H   0  0  0  0  0  0  0  0  0  0  0  0
   -1.7590    2.3400   -0.5800 H   0  0  0  0  0  0  0  0  0  0  0  0
    2.2170    2.9420    0.5170 H   0  0  0  0  0  0  0  0  0  0  0  0
    3.3260    5.3180    0.1140 C   0  0  0  0  0  0  0  0  0  0  0  0
    3.1750    5.3460   -0.9690 H   0  0  0  0  0  0  0  0  0  0  0  0
    3.8220    4.3890    0.4050 H   0  0  0  0  0  0  0  0  0  0  0  0
    3.9450    6.1650    0.4190 H   0  0  0  0  0  0  0  0  0  0  0  0
    2.0470    5.4300    0.7830 O   0  0  0  0  0  0  0  0  0  0  0  0
   -1.8000    7.0420    0.0590 C   0  0  0  0  0  0  0  0  0  0  0  0
   -2.1110    8.3520    0.0560 C   0  0  0  0  0  0  0  0  0  0  0  0
   -1.1750    9.3080    0.0040 C   0  0  1  0  0  0  0  0  0  0  0  0
    0.0960    8.8820   -0.0480 C   0  0  1  0  0  0  0  0  0  0  0  0
    0.3930    7.5680   -0.0290 C   0  0  0  0  0  0  0  0  0  0  0  0
   -1.4990   10.6070   -0.0060 C   0  0  0  0  0  0  0  0  0  0  0  0
   -3.1630    8.6320    0.1000 H   0  0  0  0  0  0  0  0  0  0  0  0
   -2.6500    6.3730    0.1330 H   0  0  0  0  0  0  0  0  0  0  0  0
    1.4440    7.3580   -0.1340 H   0  0  0  0  0  0  0  0  0  0  0  0
    1.1130    9.7590   -0.1380 F   0  0  0  0  0  0  0  0  0  0  0  0
   -1.5450   11.8480   -0.0060 C   0  0  0  0  0  0  0  0  0  0  0  0
   -1.4990   13.3430   -0.0060 C   0  0  0  0  0  0  0  0  0  0  0  0
   -2.5240   14.1930    0.0000 O   0  0  0  0  0  0  0  0  0  0  0  0
   -0.3920   13.8390   -0.0120 O   0  0  0  0  0  0  0  0  0  0  0  0
   -2.2570   15.1740    0.0000 H   0  0  0  0  0  0  0  0  0  0  0  0
  1  5  1  0  0  0  0
  2  1  1  0  0  0  0
  3  2  2  0  0  0  0
  4  2  1  1  0  0  0
  4 10  5  0  0  0  0
  6  4  5  0  0  0  0
  6  7  5  0  0  0  0
  6 13  1  0  0  0  0
  7 12  1  0  0  0  0
  8  7  5  6  0  0  0
  8 11  1  0  0  0  0
  9  8  5  0  0  0  0
  9 19  1  1  0  0  0
 10  9  5  0  0  0  0
 10 14  1  0  0  0  0
 11 20  5  6  0  0  0
 11 24  5  0  0  0  0
 15 16  1  0  0  0  0
 15 17  1  0  0  0  0
 15 18  1  0  0  0  0
 15 19  1  0  0  0  0
 20 21  5  0  0  0  0
 20 27  1  0  0  0  0
 21 26  1  0  0  0  0
 22 21  5  0  0  0  0
 22 25  1  6  0  0  0
 23 22  5  0  0  0  0
 23 29  1  6  0  0  0
 24 23  5  0  0  0  0
 24 28  1  0  0  0  0
 30 25  3  0  0  0  0
 31 30  1  0  0  0  0
 31 33  2  0  0  0  0
 32 31  1  0  0  0  0
 34 32  1  0  0  0  0
M  END
