37

O          0.99500        0.26900       -0.08300
C         -0.09200        1.06800       -0.10600
O         -1.21700        0.58700       -0.11500
C          0.16700        2.55300       -0.08600
H          1.86400        0.69600       -0.06400
C         -0.92900        3.34800       -0.07100
C         -0.80800        4.68900        0.01400
C          0.40700        5.28000        0.08400
C          1.49300        4.48000        0.04100
C          1.38600        3.13700       -0.04800
N          0.56300        6.62800        0.34200
H         -1.70800        5.29600        0.06200
H         -1.92600        2.91200       -0.09900
H          2.31100        2.57400       -0.05600
H          2.48100        4.92800        0.11000
N          0.14300        7.47000       -0.48800
C          0.04900        8.80400        0.13900
C          1.21400        9.74100       -0.15500
C          0.65800       11.04500        0.41400
N         -0.80400       10.97000        0.18900
N         -1.06900        9.62900       -0.33500
C          1.19000       12.33100       -0.06400
H         -1.94500        9.24600        0.02500
H         -1.07200       11.67900       -0.50100
H          2.12800        9.42200        0.35900
H          0.81800       11.02400        1.50100
H          1.43200        9.80300       -1.22900
H         -0.06100        8.68400        1.22900
C          1.48200       13.48500       -0.24500
C          1.76000       14.88400       -0.26800
C          0.78300       15.79800       -0.16700
C          1.12900       17.22200       -0.05400
H         -0.26700       15.53800       -0.12000
H          2.80200       15.19300       -0.29700
O          0.01800       17.97200        0.03000
O          2.24200       17.70900       -0.01100
H          0.35700       18.88700        0.12500
