39

O          0.92300        0.07600       -0.21600
C         -0.22900        0.77500       -0.15500
O         -1.30600        0.19600       -0.12200
C         -0.10000        2.27400       -0.10600
H          1.75100        0.57700       -0.25200
C         -1.25800        2.96100       -0.04500
C         -1.24500        4.29600        0.04700
C         -0.09600        5.01500        0.08000
C          1.08700        4.33300       -0.00600
C          1.05500        2.97400       -0.09500
N         -0.24600        6.36300        0.30300
H         -2.20100        4.81500        0.12000
H         -2.21600        2.43800       -0.05100
H          2.00800        2.46300       -0.15200
C          2.47700        4.97100       -0.03000
C          2.82500        6.13000        0.89900
H          1.97200        6.64900        1.33100
H          3.42900        6.86200        0.35000
H          3.43200        5.77900        1.73900
H          2.67300        5.27400       -1.06800
H          3.23100        4.19900        0.18300
N          0.32300        7.20700       -0.42300
C          0.07200        8.56300        0.11100
C          1.31800        9.45600        0.05600
C          0.80200       10.77400       -0.51700
N         -0.65300       10.67400       -0.34000
N         -0.94600        9.30600       -0.64300
N          1.36100       11.97000        0.13800
H         -1.86800        9.01700       -0.30700
H         -1.09800       11.34600       -0.97000
H          1.74000        9.57600        1.06100
H          1.04900       10.80500       -1.58800
H          2.10000        9.03800       -0.58900
H         -0.24400        8.50600        1.16500
N          0.90600       12.99700       -0.42900
C          1.18900       14.17300        0.20000
O          0.21500       15.07800       -0.05500
O          2.14400       14.48000        0.89700
H          0.51300       15.87400        0.42600
