
 OpenBabel11042013043D

 36 38  0  0  1  0  0  0  0  0999 V2000
    1.6340   -0.8810   -0.0670 O   0  0  0  0  0  0  0  0  0  0  0  0
    0.4080   -0.3110   -0.0190 C   0  0  0  0  0  0  0  0  0  0  0  0
   -0.5820   -1.0050    0.1450 O   0  0  0  0  0  0  0  0  0  0  0  0
    0.3820    1.1780   -0.1030 C   0  0  1  0  0  0  0  0  0  0  0  0
    2.3910   -0.3090   -0.2660 H   0  0  0  0  0  0  0  0  0  0  0  0
   -0.8190    1.7860   -0.1960 C   0  0  2  0  0  0  0  0  0  0  0  0
   -0.9270    3.1210   -0.1610 C   0  0  0  0  0  0  0  0  0  0  0  0
    0.1570    3.9250   -0.0060 C   0  0  1  0  0  0  0  0  0  0  0  0
    1.3640    3.2990    0.0000 C   0  0  0  0  0  0  0  0  0  0  0  0
    1.4800    1.9640   -0.0410 C   0  0  0  0  0  0  0  0  0  0  0  0
    0.0340    5.4030    0.1360 C   0  0  1  0  0  0  0  0  0  0  0  0
   -1.9330    3.5170   -0.2420 H   0  0  0  0  0  0  0  0  0  0  0  0
   -1.9640    1.0740   -0.3100 F   0  0  0  0  0  0  0  0  0  0  0  0
    2.4900    1.5700    0.0150 H   0  0  0  0  0  0  0  0  0  0  0  0
    2.2960    3.8510    0.0700 H   0  0  0  0  0  0  0  0  0  0  0  0
   -1.1600    6.0110    0.3240 C   0  0  0  0  0  0  0  0  0  0  0  0
   -1.2770    7.3510    0.3170 C   0  0  0  0  0  0  0  0  0  0  0  0
   -0.2070    8.1580    0.1350 C   0  0  1  0  0  0  0  0  0  0  0  0
    1.0140    7.5660    0.1140 C   0  0  1  0  0  0  0  0  0  0  0  0
    1.1130    6.2220    0.0950 C   0  0  0  0  0  0  0  0  0  0  0  0
   -0.4940    9.6100   -0.1860 C   0  0  2  0  0  0  0  0  0  0  0  0
   -2.2810    7.7720    0.4010 H   0  0  0  0  0  0  0  0  0  0  0  0
   -2.0840    5.4520    0.4420 H   0  0  0  0  0  0  0  0  0  0  0  0
    2.1150    5.8190    0.0020 H   0  0  0  0  0  0  0  0  0  0  0  0
    2.5270    8.4150    0.0100 Cl  0  0  0  0  0  0  0  0  0  0  0  0
    0.5620   10.6800   -0.1960 C   0  0  0  0  0  0  0  0  0  0  0  0
   -0.2820   11.8260   -0.0520 N   0  0  0  0  0  0  0  0  0  0  0  0
   -1.4690   11.5110    0.5420 N   0  0  0  0  0  0  0  0  0  0  0  0
   -1.5600   10.2500    0.6300 N   0  0  0  0  0  0  0  0  0  0  0  0
    0.1710   13.1040   -0.2050 C   0  0  0  0  0  0  0  0  0  0  0  0
    1.2260   10.6720    0.6730 H   0  0  0  0  0  0  0  0  0  0  0  0
    1.1360   10.7210   -1.1270 H   0  0  0  0  0  0  0  0  0  0  0  0
   -0.9050    9.5670   -1.2100 H   0  0  0  0  0  0  0  0  0  0  0  0
   -0.7580   14.0480    0.0410 O   0  0  0  0  0  0  0  0  0  0  0  0
    1.2950   13.4350   -0.5410 O   0  0  0  0  0  0  0  0  0  0  0  0
   -0.2670   14.8820   -0.1030 H   0  0  0  0  0  0  0  0  0  0  0  0
  1  5  1  0  0  0  0
  2  1  1  0  0  0  0
  3  2  2  0  0  0  0
  4  2  1  1  0  0  0
  4 10  5  0  0  0  0
  6  4  5  0  0  0  0
  6  7  5  0  0  0  0
  6 13  1  1  0  0  0
  7 12  1  0  0  0  0
  8  7  5  6  0  0  0
  8 11  1  0  0  0  0
  9  8  5  0  0  0  0
  9 15  1  0  0  0  0
 10  9  5  0  0  0  0
 10 14  1  0  0  0  0
 11 16  5  1  0  0  0
 11 20  5  0  0  0  0
 16 17  5  0  0  0  0
 16 23  1  0  0  0  0
 17 22  1  0  0  0  0
 18 17  5  6  0  0  0
 18 21  1  0  0  0  0
 19 18  5  0  0  0  0
 19 25  1  6  0  0  0
 20 19  5  0  0  0  0
 20 24  1  0  0  0  0
 21 29  1  0  0  0  0
 21 33  1  6  0  0  0
 26 21  1  0  0  0  0
 26 31  1  0  0  0  0
 26 32  1  0  0  0  0
 27 26  1  0  0  0  0
 28 27  1  0  0  0  0
 29 28  2  0  0  0  0
 30 27  1  0  0  0  0
 30 35  2  0  0  0  0
 34 30  1  0  0  0  0
 36 34  1  0  0  0  0
M  END
