
 OpenBabel11042013033D

 35 36  0  0  1  0  0  0  0  0999 V2000
    1.9080    0.2040    0.0160 O   0  0  0  0  0  0  0  0  0  0  0  0
    0.6510    0.7020    0.0570 C   0  0  0  0  0  0  0  0  0  0  0  0
   -0.2960   -0.0680    0.0330 O   0  0  0  0  0  0  0  0  0  0  0  0
    0.5240    2.2080    0.0680 C   0  0  2  0  0  0  0  0  0  0  0  0
    2.6260    0.8640    0.0280 H   0  0  0  0  0  0  0  0  0  0  0  0
   -0.7040    2.7970    0.0070 C   0  0  1  0  0  0  0  0  0  0  0  0
   -0.7310    4.1410   -0.0910 C   0  0  0  0  0  0  0  0  0  0  0  0
    0.3520    4.9470   -0.0980 C   0  0  1  0  0  0  0  0  0  0  0  0
    1.5670    4.3540    0.0570 C   0  0  1  0  0  0  0  0  0  0  0  0
    1.6210    2.9980    0.1170 C   0  0  2  0  0  0  0  0  0  0  0  0
    0.0340    6.4230   -0.3500 C   0  0  2  0  0  0  0  0  0  0  0  0
   -1.7010    4.6280   -0.1910 H   0  0  0  0  0  0  0  0  0  0  0  0
   -2.0350    2.0350    0.0280 C   0  0  0  0  0  0  0  0  0  0  0  0
    2.8470    2.4250    0.2090 F   0  0  0  0  0  0  0  0  0  0  0  0
    2.8610    5.1280    0.1240 C   0  0  0  0  0  0  0  0  0  0  0  0
    2.9680    5.8000   -0.7330 H   0  0  0  0  0  0  0  0  0  0  0  0
    3.7460    4.4820    0.1170 H   0  0  0  0  0  0  0  0  0  0  0  0
    2.9100    5.7040    1.0540 H   0  0  0  0  0  0  0  0  0  0  0  0
    0.9630    7.5790   -0.0860 C   0  0  0  0  0  0  0  0  0  0  0  0
   -0.0240    8.6180    0.0890 N   0  0  0  0  0  0  0  0  0  0  0  0
   -1.2280    8.1200    0.4720 N   0  0  0  0  0  0  0  0  0  0  0  0
   -1.1870    6.8660    0.3940 N   0  0  0  0  0  0  0  0  0  0  0  0
    0.1910    9.9550   -0.0830 C   0  0  0  0  0  0  0  0  0  0  0  0
    1.5200    7.5030    0.8510 H   0  0  0  0  0  0  0  0  0  0  0  0
    1.6360    7.8060   -0.9170 H   0  0  0  0  0  0  0  0  0  0  0  0
   -0.2360    6.4690   -1.4180 H   0  0  0  0  0  0  0  0  0  0  0  0
   -3.3250    2.8670    0.0760 C   0  0  0  0  0  0  0  0  0  0  0  0
   -3.3510    3.5120    0.9620 H   0  0  0  0  0  0  0  0  0  0  0  0
   -3.4310    3.4920   -0.8170 H   0  0  0  0  0  0  0  0  0  0  0  0
   -4.2000    2.2130    0.1180 H   0  0  0  0  0  0  0  0  0  0  0  0
   -2.0560    1.3930    0.9180 H   0  0  0  0  0  0  0  0  0  0  0  0
   -2.0960    1.4010   -0.8630 H   0  0  0  0  0  0  0  0  0  0  0  0
   -0.9090   10.7130    0.0900 O   0  0  0  0  0  0  0  0  0  0  0  0
    1.2480   10.4760   -0.3940 O   0  0  0  0  0  0  0  0  0  0  0  0
   -0.5980   11.6220   -0.0880 H   0  0  0  0  0  0  0  0  0  0  0  0
  1  5  1  0  0  0  0
  2  1  1  0  0  0  0
  3  2  2  0  0  0  0
  4  2  1  6  0  0  0
  4 10  5  0  0  0  0
  6  4  5  0  0  0  0
  6  7  5  0  0  0  0
  6 13  1  6  0  0  0
  7 12  1  0  0  0  0
  8  7  5  6  0  0  0
  8 11  1  0  0  0  0
  9  8  5  0  0  0  0
  9 15  1  6  0  0  0
 10  9  5  0  0  0  0
 10 14  1  6  0  0  0
 11 22  1  0  0  0  0
 11 26  1  6  0  0  0
 13 31  1  0  0  0  0
 13 32  1  0  0  0  0
 15 16  1  0  0  0  0
 15 17  1  0  0  0  0
 15 18  1  0  0  0  0
 19 11  1  0  0  0  0
 19 24  1  0  0  0  0
 19 25  1  0  0  0  0
 20 19  1  0  0  0  0
 21 20  1  0  0  0  0
 22 21  2  0  0  0  0
 23 20  1  0  0  0  0
 23 34  2  0  0  0  0
 27 28  1  0  0  0  0
 27 29  1  0  0  0  0
 27 30  1  0  0  0  0
 27 13  1  0  0  0  0
 33 23  1  0  0  0  0
 35 33  1  0  0  0  0
M  END
