35

O          1.12200       -0.34300       -0.00000
C         -0.08700        0.25300       -0.00000
O         -1.11700       -0.40200       -0.00000
C         -0.07300        1.73400       -0.00000
H          1.90700        0.22500        0.00000
C         -1.25800        2.39700        0.00000
C         -1.28500        3.73000        0.00000
C         -0.14400        4.47700        0.00000
C          1.03900        3.79000       -0.00000
C          1.05500        2.45400        0.00000
C         -0.19600        5.95900       -0.00000
H         -2.27700        4.18900        0.00000
H         -2.19900        1.84200       -0.00000
H          2.03900        2.01700        0.00000
O          2.28200        4.39500        0.00000
H          3.05700        3.81800        0.00000
C         -1.35000        6.67700        0.00000
C         -1.32100        8.02400        0.00000
C         -0.14800        8.68300        0.00000
C          0.99700        7.99700        0.00000
C          0.94800        6.67600       -0.00000
C          0.02500       10.09200        0.00000
H         -2.27300        8.54300       -0.00000
H         -2.33500        6.22400        0.00000
H          1.93900        6.28000       -0.00000
H          1.97900        8.46600        0.00000
C         -0.98100       10.95200       -0.00000
C         -0.64500       12.29500       -0.00000
H         -2.02000       10.66300        0.00000
H          1.05700       10.45600       -0.00000
C         -0.31600       13.44100       -0.00000
C         -0.16600       14.84500        0.00000
O         -1.36700       15.44000        0.00000
O          0.89300       15.44000       -0.00000
H         -1.16300       16.39200       -0.00000
