40

O          1.36400       -1.07000        0.02600
C          0.14300       -0.49500        0.02700
O         -0.87100       -1.17800        0.07300
C          0.12000        1.00200       -0.02300
H          2.13300       -0.48300       -0.02100
C         -1.09400        1.59600       -0.02500
C         -1.21200        2.93900       -0.04400
C         -0.12400        3.75100       -0.06500
C          1.08200        3.12400       -0.08400
C          1.21200        1.79000       -0.05900
C         -0.22000        5.24200       -0.02500
H         -2.22000        3.34000       -0.02800
H         -2.00300        0.99500        0.00000
H          2.22500        1.40800       -0.05300
H          2.01800        3.67000       -0.10900
C         -1.39300        5.93000       -0.07200
C         -1.43400        7.27800        0.01700
C         -0.30200        8.00200        0.16600
C          0.86300        7.32600        0.20000
C          0.90000        5.99500        0.09800
C         -0.30500        9.51200        0.27900
H         -2.40100        7.77700       -0.02000
H         -2.34700        5.42600       -0.17800
H          1.89500        5.57200        0.13600
H          1.81900        7.82900        0.31700
C          0.98800       10.19000       -0.12500
N          0.48800       11.36000       -0.78500
N         -0.84000       11.23500       -1.09200
N         -1.27500       10.15000       -0.62800
C          0.86400       12.63000       -0.21700
H          1.63200       10.39100        0.74000
H          1.57000        9.62800       -0.86300
H         -0.56400        9.78800        1.31100
C          1.02700       13.74000        0.19400
C          0.91400       15.21700        0.49400
C          0.56100       16.35800        0.48700
C         -0.03200       17.63400        0.26700
O         -1.38000       17.60400        0.26800
O          0.60300       18.64100        0.01900
H         -1.63400       18.50900       -0.00200
