
 OpenBabel11042013043D

 40 42  0  0  1  0  0  0  0  0999 V2000
    1.3640   -1.0700    0.0260 O   0  0  0  0  0  0  0  0  0  0  0  0
    0.1430   -0.4950    0.0270 C   0  0  0  0  0  0  0  0  0  0  0  0
   -0.8710   -1.1780    0.0730 O   0  0  0  0  0  0  0  0  0  0  0  0
    0.1200    1.0020   -0.0230 C   0  0  1  0  0  0  0  0  0  0  0  0
    2.1330   -0.4830   -0.0210 H   0  0  0  0  0  0  0  0  0  0  0  0
   -1.0940    1.5960   -0.0250 C   0  0  0  0  0  0  0  0  0  0  0  0
   -1.2120    2.9390   -0.0440 C   0  0  0  0  0  0  0  0  0  0  0  0
   -0.1240    3.7510   -0.0650 C   0  0  2  0  0  0  0  0  0  0  0  0
    1.0820    3.1240   -0.0840 C   0  0  0  0  0  0  0  0  0  0  0  0
    1.2120    1.7900   -0.0590 C   0  0  0  0  0  0  0  0  0  0  0  0
   -0.2200    5.2420   -0.0250 C   0  0  1  0  0  0  0  0  0  0  0  0
   -2.2200    3.3400   -0.0280 H   0  0  0  0  0  0  0  0  0  0  0  0
   -2.0030    0.9950    0.0000 H   0  0  0  0  0  0  0  0  0  0  0  0
    2.2250    1.4080   -0.0530 H   0  0  0  0  0  0  0  0  0  0  0  0
    2.0180    3.6700   -0.1090 H   0  0  0  0  0  0  0  0  0  0  0  0
   -1.3930    5.9300   -0.0720 C   0  0  0  0  0  0  0  0  0  0  0  0
   -1.4340    7.2780    0.0170 C   0  0  0  0  0  0  0  0  0  0  0  0
   -0.3020    8.0020    0.1660 C   0  0  1  0  0  0  0  0  0  0  0  0
    0.8630    7.3260    0.2000 C   0  0  0  0  0  0  0  0  0  0  0  0
    0.9000    5.9950    0.0980 C   0  0  0  0  0  0  0  0  0  0  0  0
   -0.3050    9.5120    0.2790 C   0  0  1  0  0  0  0  0  0  0  0  0
   -2.4010    7.7770   -0.0200 H   0  0  0  0  0  0  0  0  0  0  0  0
   -2.3470    5.4260   -0.1780 H   0  0  0  0  0  0  0  0  0  0  0  0
    1.8950    5.5720    0.1360 H   0  0  0  0  0  0  0  0  0  0  0  0
    1.8190    7.8290    0.3170 H   0  0  0  0  0  0  0  0  0  0  0  0
    0.9880   10.1900   -0.1250 C   0  0  0  0  0  0  0  0  0  0  0  0
    0.4880   11.3600   -0.7850 N   0  0  0  0  0  0  0  0  0  0  0  0
   -0.8400   11.2350   -1.0920 N   0  0  0  0  0  0  0  0  0  0  0  0
   -1.2750   10.1500   -0.6280 N   0  0  0  0  0  0  0  0  0  0  0  0
    0.8640   12.6300   -0.2170 C   0  0  0  0  0  0  0  0  0  0  0  0
    1.6320   10.3910    0.7400 H   0  0  0  0  0  0  0  0  0  0  0  0
    1.5700    9.6280   -0.8630 H   0  0  0  0  0  0  0  0  0  0  0  0
   -0.5640    9.7880    1.3110 H   0  0  0  0  0  0  0  0  0  0  0  0
    1.0270   13.7400    0.1940 C   0  0  0  0  0  0  0  0  0  0  0  0
    0.9140   15.2170    0.4940 C   0  0  0  0  0  0  0  0  0  0  0  0
    0.5610   16.3580    0.4870 C   0  0  0  0  0  0  0  0  0  0  0  0
   -0.0320   17.6340    0.2670 C   0  0  0  0  0  0  0  0  0  0  0  0
   -1.3800   17.6040    0.2680 O   0  0  0  0  0  0  0  0  0  0  0  0
    0.6030   18.6410    0.0190 O   0  0  0  0  0  0  0  0  0  0  0  0
   -1.6340   18.5090   -0.0020 H   0  0  0  0  0  0  0  0  0  0  0  0
  1  5  1  0  0  0  0
  2  1  1  0  0  0  0
  3  2  2  0  0  0  0
  4  2  1  1  0  0  0
  4 10  5  0  0  0  0
  6  4  5  0  0  0  0
  6  7  5  0  0  0  0
  6 13  1  0  0  0  0
  7 12  1  0  0  0  0
  8  7  5  1  0  0  0
  8 11  1  0  0  0  0
  9  8  5  0  0  0  0
  9 15  1  0  0  0  0
 10  9  5  0  0  0  0
 10 14  1  0  0  0  0
 11 16  5  1  0  0  0
 11 20  5  0  0  0  0
 16 17  5  0  0  0  0
 16 23  1  0  0  0  0
 17 22  1  0  0  0  0
 18 17  5  6  0  0  0
 18 21  1  0  0  0  0
 19 18  5  0  0  0  0
 19 25  1  0  0  0  0
 20 19  5  0  0  0  0
 20 24  1  0  0  0  0
 21 29  1  0  0  0  0
 21 33  1  1  0  0  0
 26 21  1  0  0  0  0
 26 31  1  0  0  0  0
 26 32  1  0  0  0  0
 27 26  1  0  0  0  0
 28 27  1  0  0  0  0
 29 28  2  0  0  0  0
 30 27  1  0  0  0  0
 34 30  3  0  0  0  0
 35 34  1  0  0  0  0
 36 35  3  0  0  0  0
 37 36  1  0  0  0  0
 37 39  2  0  0  0  0
 38 37  1  0  0  0  0
 40 38  1  0  0  0  0
M  END
