
 OpenBabel11042013043D

 47 49  0  0  1  0  0  0  0  0999 V2000
   -0.0690   -0.4110    0.3020 O   0  0  0  0  0  0  0  0  0  0  0  0
   -1.1310    0.4230    0.2610 C   0  0  0  0  0  0  0  0  0  0  0  0
   -2.2650   -0.0110    0.1260 O   0  0  0  0  0  0  0  0  0  0  0  0
   -0.7900    1.8900    0.3380 C   0  0  2  0  0  0  0  0  0  0  0  0
    0.7630    0.0730    0.4800 H   0  0  0  0  0  0  0  0  0  0  0  0
   -1.8850    2.6730    0.3060 C   0  0  0  0  0  0  0  0  0  0  0  0
   -1.7580    4.0040    0.2730 C   0  0  0  0  0  0  0  0  0  0  0  0
   -0.5530    4.6320    0.2840 C   0  0  1  0  0  0  0  0  0  0  0  0
    0.5560    3.8420    0.4300 C   0  0  2  0  0  0  0  0  0  0  0  0
    0.4440    2.4660    0.4220 C   0  0  1  0  0  0  0  0  0  0  0  0
   -0.5260    6.1350   -0.1160 C   0  0  2  0  0  0  0  0  0  0  0  0
   -2.6940    4.5460    0.1820 H   0  0  0  0  0  0  0  0  0  0  0  0
   -2.8830    2.2530    0.2520 H   0  0  0  0  0  0  0  0  0  0  0  0
    2.5370    1.6880   -0.4910 C   0  0  0  0  0  0  0  0  0  0  0  0
    1.8980    4.5120    0.6250 C   0  0  0  0  0  0  0  0  0  0  0  0
    2.6560    2.6730   -0.9440 H   0  0  0  0  0  0  0  0  0  0  0  0
    2.3040    0.9630   -1.2770 H   0  0  0  0  0  0  0  0  0  0  0  0
    3.4940    1.4020   -0.0390 H   0  0  0  0  0  0  0  0  0  0  0  0
    1.5460    1.6250    0.5430 O   0  0  0  0  0  0  0  0  0  0  0  0
    0.2420    7.2050    0.5460 O   0  0  0  0  0  0  0  0  0  0  0  0
   -1.5970    8.2170   -0.5120 C   0  0  0  0  0  0  0  0  0  0  0  0
   -1.9030    6.7780   -0.2330 C   0  0  0  0  0  0  0  0  0  0  0  0
    0.2730    9.8590   -0.2080 C   0  0  2  0  0  0  0  0  0  0  0  0
   -2.5300    6.3490   -1.0170 H   0  0  0  0  0  0  0  0  0  0  0  0
   -1.8860    8.5260   -1.5210 H   0  0  0  0  0  0  0  0  0  0  0  0
   -2.1820    8.8000    0.2030 H   0  0  0  0  0  0  0  0  0  0  0  0
   -2.4350    6.7150    0.7280 H   0  0  0  0  0  0  0  0  0  0  0  0
    0.4150    8.0720   -1.2480 H   0  0  0  0  0  0  0  0  0  0  0  0
   -0.0840    8.3460   -0.3040 C   0  0  1  0  0  0  0  0  0  0  0  0
   -0.1050    6.0730   -1.1330 H   0  0  0  0  0  0  0  0  0  0  0  0
    2.6210    3.8510    1.1150 H   0  0  0  0  0  0  0  0  0  0  0  0
    1.8140    5.3730    1.2940 H   0  0  0  0  0  0  0  0  0  0  0  0
    2.3120    4.8430   -0.3320 H   0  0  0  0  0  0  0  0  0  0  0  0
    1.5890   10.5160    0.1900 C   0  0  0  0  0  0  0  0  0  0  0  0
    1.2600   11.9780   -0.2080 C   0  0  1  0  0  0  0  0  0  0  0  0
   -0.2210   12.0840   -0.0540 N   0  0  0  0  0  0  0  0  0  0  0  0
   -0.6460   10.8010    0.4640 N   0  0  0  0  0  0  0  0  0  0  0  0
    1.9340   13.1410    0.5120 C   0  0  0  0  0  0  0  0  0  0  0  0
   -1.6190   10.6350    0.2000 H   0  0  0  0  0  0  0  0  0  0  0  0
   -0.4410   12.8700    0.5700 H   0  0  0  0  0  0  0  0  0  0  0  0
    2.4420   10.1350   -0.3790 H   0  0  0  0  0  0  0  0  0  0  0  0
    1.4830   12.1180   -1.2750 H   0  0  0  0  0  0  0  0  0  0  0  0
    1.8060   10.4300    1.2610 H   0  0  0  0  0  0  0  0  0  0  0  0
    0.1660   10.1030   -1.2820 H   0  0  0  0  0  0  0  0  0  0  0  0
    1.1080   14.2150    0.6410 O   0  0  0  0  0  0  0  0  0  0  0  0
    3.1050   13.2240    0.8430 O   0  0  0  0  0  0  0  0  0  0  0  0
    1.6710   14.9460    0.9680 H   0  0  0  0  0  0  0  0  0  0  0  0
  1  5  1  0  0  0  0
  2  1  1  0  0  0  0
  3  2  2  0  0  0  0
  4  2  1  6  0  0  0
  4 10  5  0  0  0  0
  6  4  5  0  0  0  0
  6  7  5  0  0  0  0
  6 13  1  0  0  0  0
  7 12  1  0  0  0  0
  8  7  5  6  0  0  0
  8 11  1  0  0  0  0
  9  8  5  0  0  0  0
  9 15  1  1  0  0  0
 10  9  5  0  0  0  0
 10 19  1  1  0  0  0
 11 22  1  0  0  0  0
 11 30  1  6  0  0  0
 14 16  1  0  0  0  0
 14 17  1  0  0  0  0
 14 18  1  0  0  0  0
 14 19  1  0  0  0  0
 15 31  1  0  0  0  0
 15 32  1  0  0  0  0
 15 33  1  0  0  0  0
 20 11  1  0  0  0  0
 21 29  1  0  0  0  0
 21 26  1  0  0  0  0
 22 21  1  0  0  0  0
 22 27  1  0  0  0  0
 23 29  1  0  0  0  0
 23 37  1  0  0  0  0
 23 44  1  6  0  0  0
 24 22  1  0  0  0  0
 25 21  1  0  0  0  0
 29 20  1  0  0  0  0
 29 28  1  6  0  0  0
 34 23  1  0  0  0  0
 34 41  1  0  0  0  0
 34 43  1  0  0  0  0
 35 34  1  0  0  0  0
 35 42  1  6  0  0  0
 36 35  1  0  0  0  0
 37 36  1  0  0  0  0
 38 35  1  0  0  0  0
 38 46  2  0  0  0  0
 39 37  1  0  0  0  0
 40 36  1  0  0  0  0
 45 38  1  0  0  0  0
 47 45  1  0  0  0  0
M  END
