
 OpenBabel11042013043D

 44 46  0  0  1  0  0  0  0  0999 V2000
    1.3750   -0.8910    0.0220 O   0  0  0  0  0  0  0  0  0  0  0  0
    0.2340   -0.1920    0.1480 C   0  0  0  0  0  0  0  0  0  0  0  0
   -0.8310   -0.7970    0.1850 O   0  0  0  0  0  0  0  0  0  0  0  0
    0.3310    1.3200    0.1780 C   0  0  2  0  0  0  0  0  0  0  0  0
    2.1900   -0.3860   -0.0790 H   0  0  0  0  0  0  0  0  0  0  0  0
   -0.9070    1.8760    0.1830 C   0  0  0  0  0  0  0  0  0  0  0  0
   -1.0860    3.1990    0.1080 C   0  0  0  0  0  0  0  0  0  0  0  0
   -0.0330    4.0430    0.0100 C   0  0  1  0  0  0  0  0  0  0  0  0
    1.1990    3.5010    0.0910 C   0  0  0  0  0  0  0  0  0  0  0  0
    1.4090    2.1570    0.1660 C   0  0  2  0  0  0  0  0  0  0  0  0
   -0.2380    5.5080   -0.3340 C   0  0  2  0  0  0  0  0  0  0  0  0
   -2.1110    3.5550    0.0600 H   0  0  0  0  0  0  0  0  0  0  0  0
   -1.8070    1.2610    0.2100 H   0  0  0  0  0  0  0  0  0  0  0  0
    2.8550    1.7280    0.1970 C   0  0  0  0  0  0  0  0  0  0  0  0
    2.0480    4.1820    0.0310 H   0  0  0  0  0  0  0  0  0  0  0  0
    0.5680    6.5270    0.3210 O   0  0  0  0  0  0  0  0  0  0  0  0
   -1.4760    7.5310   -0.2590 C   0  0  0  0  0  0  0  0  0  0  0  0
   -1.6600    6.0390   -0.2180 C   0  0  0  0  0  0  0  0  0  0  0  0
    0.5390    9.1100    0.1430 C   0  0  2  0  0  0  0  0  0  0  0  0
   -2.3100    5.6800   -1.0220 H   0  0  0  0  0  0  0  0  0  0  0  0
   -1.9560    7.9880   -1.1310 H   0  0  0  0  0  0  0  0  0  0  0  0
   -1.9410    7.9430    0.6440 H   0  0  0  0  0  0  0  0  0  0  0  0
   -2.1160    5.7670    0.7420 H   0  0  0  0  0  0  0  0  0  0  0  0
    0.3600    7.6800   -1.3450 H   0  0  0  0  0  0  0  0  0  0  0  0
    0.0430    7.7330   -0.2900 C   0  0  1  0  0  0  0  0  0  0  0  0
    0.0450    5.5510   -1.3990 H   0  0  0  0  0  0  0  0  0  0  0  0
   -0.3640   10.1010    0.3480 C   0  0  0  0  0  0  0  0  0  0  0  0
    0.0080   11.3790    0.4760 C   0  0  0  0  0  0  0  0  0  0  0  0
    1.3050   11.7240    0.4100 C   0  0  1  0  0  0  0  0  0  0  0  0
    2.2340   10.7560    0.2820 C   0  0  0  0  0  0  0  0  0  0  0  0
    1.8500    9.4580    0.1540 C   0  0  0  0  0  0  0  0  0  0  0  0
    1.5580   13.1240    0.3880 C   0  0  0  0  0  0  0  0  0  0  0  0
   -0.7650   12.1400    0.5710 H   0  0  0  0  0  0  0  0  0  0  0  0
   -1.4330    9.9300    0.3400 H   0  0  0  0  0  0  0  0  0  0  0  0
    2.6090    8.6970   -0.0080 H   0  0  0  0  0  0  0  0  0  0  0  0
    3.2880   11.0100    0.2230 H   0  0  0  0  0  0  0  0  0  0  0  0
    1.3210   14.2940    0.2600 C   0  0  0  0  0  0  0  0  0  0  0  0
    0.6720   15.5560    0.0490 C   0  0  0  0  0  0  0  0  0  0  0  0
    3.1270    1.2230   -0.7360 H   0  0  0  0  0  0  0  0  0  0  0  0
    3.5420    2.5770    0.2940 H   0  0  0  0  0  0  0  0  0  0  0  0
    3.0520    1.0800    1.0570 H   0  0  0  0  0  0  0  0  0  0  0  0
   -0.6730   15.4480    0.0020 O   0  0  0  0  0  0  0  0  0  0  0  0
    1.2540   16.6150   -0.0950 O   0  0  0  0  0  0  0  0  0  0  0  0
   -0.9900   16.3590   -0.1570 H   0  0  0  0  0  0  0  0  0  0  0  0
  1  5  1  0  0  0  0
  2  1  1  0  0  0  0
  3  2  2  0  0  0  0
  4  2  1  6  0  0  0
  4 10  5  0  0  0  0
  6  4  5  0  0  0  0
  6  7  5  0  0  0  0
  6 13  1  0  0  0  0
  7 12  1  0  0  0  0
  8  7  5  6  0  0  0
  8 11  1  0  0  0  0
  9  8  5  0  0  0  0
  9 15  1  0  0  0  0
 10  9  5  0  0  0  0
 10 14  1  6  0  0  0
 11 18  1  0  0  0  0
 11 26  1  6  0  0  0
 14 39  1  0  0  0  0
 14 40  1  0  0  0  0
 14 41  1  0  0  0  0
 16 11  1  0  0  0  0
 17 25  1  0  0  0  0
 17 22  1  0  0  0  0
 18 17  1  0  0  0  0
 18 23  1  0  0  0  0
 19 25  1  0  0  0  0
 19 27  5  6  0  0  0
 19 31  5  0  0  0  0
 20 18  1  0  0  0  0
 21 17  1  0  0  0  0
 25 16  1  0  0  0  0
 25 24  1  6  0  0  0
 27 28  5  0  0  0  0
 27 34  1  0  0  0  0
 28 33  1  0  0  0  0
 29 28  5  0  0  0  0
 29 32  1  6  0  0  0
 30 29  5  0  0  0  0
 30 36  1  0  0  0  0
 31 30  5  0  0  0  0
 31 35  1  0  0  0  0
 37 32  3  0  0  0  0
 38 37  1  0  0  0  0
 38 43  2  0  0  0  0
 42 38  1  0  0  0  0
 44 42  1  0  0  0  0
M  END
