26

O          1.23800        0.29800       -0.18500
C         -0.03000        0.76400       -0.14800
O         -0.94000       -0.03900       -0.28600
C         -0.21700        2.25400        0.05200
H          1.99600        0.89800       -0.12700
C         -1.43500        2.86800        0.00800
C         -1.55000        4.22300        0.20300
C         -0.43500        4.98200        0.40300
C          0.77100        4.35000        0.45700
C          0.86100        3.02000        0.30700
C         -0.36900        6.44200        0.63000
Br        -3.28600        5.03800        0.23400
Cl        -2.89400        1.93200       -0.30100
H          1.86300        2.62600        0.41100
C          2.58100        5.51000       -0.47000
C         -1.02200        7.44600        0.02200
C         -0.51000        8.80800        0.24300
H         -1.82800        7.33400       -0.68800
H          0.43300        6.73700        1.31500
H          2.99700        6.49900       -0.26200
H          1.89100        5.59500       -1.31800
H          3.39800        4.83200       -0.73000
O          1.95300        5.03700        0.72500
O         -1.43500        9.72700       -0.06700
O          0.60600        9.11600        0.61200
H         -0.97400       10.57700        0.10000
