
 OpenBabel11042013043D

 24 24  0  0  1  0  0  0  0  0999 V2000
    0.8680    0.0540    0.0000 O   0  0  0  0  0  0  0  0  0  0  0  0
   -0.2320    0.8280   -0.0000 C   0  0  0  0  0  0  0  0  0  0  0  0
   -1.3410    0.3060    0.0000 O   0  0  0  0  0  0  0  0  0  0  0  0
   -0.0400    2.3180   -0.0000 C   0  0  1  0  0  0  0  0  0  0  0  0
    1.7290    0.5120    0.0000 H   0  0  0  0  0  0  0  0  0  0  0  0
   -1.2170    3.0040   -0.0000 C   0  0  0  0  0  0  0  0  0  0  0  0
   -1.2480    4.3500    0.0000 C   0  0  0  0  0  0  0  0  0  0  0  0
   -0.0860    5.0310   -0.0000 C   0  0  1  0  0  0  0  0  0  0  0  0
    1.0730    4.3520    0.0000 C   0  0  0  0  0  0  0  0  0  0  0  0
    1.1280    3.0080   -0.0000 C   0  0  2  0  0  0  0  0  0  0  0  0
    0.0650    6.3750   -0.0000 N   0  0  0  0  0  0  0  0  0  0  0  0
   -2.2020    4.8760    0.0000 H   0  0  0  0  0  0  0  0  0  0  0  0
   -2.1800    2.4890    0.0000 H   0  0  0  0  0  0  0  0  0  0  0  0
    2.8530    2.2680    0.0000 Br  0  0  0  0  0  0  0  0  0  0  0  0
    1.9830    4.9480    0.0000 H   0  0  0  0  0  0  0  0  0  0  0  0
   -0.9210    7.1100    0.0000 N   0  0  0  0  0  0  0  0  0  0  0  0
   -0.4030    8.3290   -0.0000 C   0  0  0  0  0  0  0  0  0  0  0  0
    0.0430    9.4320   -0.0000 C   0  0  0  0  0  0  0  0  0  0  0  0
    0.2290   10.9160   -0.0000 C   0  0  0  0  0  0  0  0  0  0  0  0
    0.1160   12.1010   -0.0000 C   0  0  0  0  0  0  0  0  0  0  0  0
   -0.0490   13.5100   -0.0000 C   0  0  0  0  0  0  0  0  0  0  0  0
   -1.3220   13.9390   -0.0000 O   0  0  0  0  0  0  0  0  0  0  0  0
    0.9050   14.2650    0.0000 O   0  0  0  0  0  0  0  0  0  0  0  0
   -1.2270   14.9140    0.0000 H   0  0  0  0  0  0  0  0  0  0  0  0
  1  5  1  0  0  0  0
  2  1  1  0  0  0  0
  3  2  2  0  0  0  0
  4  2  1  1  0  0  0
  4 10  5  0  0  0  0
  6  4  5  0  0  0  0
  6  7  5  0  0  0  0
  6 13  1  0  0  0  0
  7 12  1  0  0  0  0
  8  7  5  0  0  0  0
  8 11  1  6  0  0  0
  9  8  5  0  0  0  0
  9 15  1  0  0  0  0
 10  9  5  0  0  0  0
 10 14  1  6  0  0  0
 16 11  2  0  0  0  0
 17 16  1  0  0  0  0
 18 17  3  0  0  0  0
 19 18  1  0  0  0  0
 20 19  3  0  0  0  0
 21 20  1  0  0  0  0
 21 23  2  0  0  0  0
 22 21  1  0  0  0  0
 24 22  1  0  0  0  0
M  END
