58

O          1.68900       -1.04400        0.11400
C          0.45000       -0.52600        0.22400
O         -0.53500       -1.25100        0.22700
C          0.37100        0.96800        0.27000
H          2.42000       -0.40900        0.08600
C         -0.88500        1.46500        0.29500
C         -1.09800        2.78900        0.20800
C         -0.06900        3.65700        0.08200
C          1.18900        3.16300        0.14200
C          1.41000        1.83500        0.23600
C         -0.29600        5.09100       -0.33300
H         -2.13300        3.12000        0.16800
H         -1.75200        0.81000        0.33400
H          2.44400        1.51600        0.22900
H          2.03500        3.84300        0.05300
O          0.33400        6.14000        0.43900
C         -1.60400        7.04400       -0.57300
C         -1.73900        5.55100       -0.45800
C          0.22800        8.67900        0.25600
H         -2.26000        5.11000       -1.31200
H         -1.88200        7.42700       -1.55900
H         -2.30100        7.47000        0.15100
H         -2.30800        5.32600        0.45400
H          0.40200        7.26800       -1.25400
C         -0.11500        7.30900       -0.28100
H          0.15200        5.14400       -1.33900
C         -0.74900        9.49400        0.70300
C         -0.53500       10.80200        0.85800
C          0.65600       11.36400        0.57600
C          1.67800       10.54400        0.24400
C          1.46200        9.21600        0.08400
C          0.70400       12.87500        0.69700
H         -1.38200       11.39400        1.18400
H         -1.76400        9.16200        0.88800
H          2.28500        8.58200       -0.24400
H          2.67300       10.94700        0.04600
C          1.78100       13.80500        0.13200
C          1.12800       15.18400        0.43200
N         -0.32300       14.88500        0.49100
N         -0.43100       13.54800        0.02400
C          1.38700       16.32300       -0.56400
H         -1.32900       13.13600        0.26300
H         -0.84600       15.56000       -0.08000
H          2.74700       13.68600        0.63200
H          1.42100       15.49000        1.44400
H          1.92800       13.65200       -0.94700
H          0.64900       13.05400        1.78300
C          2.53200       17.23000       -0.18800
N          1.87500       18.51000       -0.16500
N          0.53500       18.43100       -0.32200
N          0.21000       17.24400       -0.54600
C          2.50600       19.71800       -0.07800
H          2.95700       17.03500        0.80200
H          3.33800       17.23100       -0.92700
H          1.48800       15.94500       -1.58600
O          1.66500       20.77500       -0.09100
O          3.71200       19.90200       -0.00800
H          2.25300       21.55300       -0.04700
