
 OpenBabel11032017293D

 37 38  0  0  1  0  0  0  0  0999 V2000
    1.2630    0.0120   -0.0550 O   0  0  0  0  0  0  0  0  0  0  0  0
    0.1260    0.7310    0.0260 C   0  0  0  0  0  0  0  0  0  0  0  0
   -0.9640    0.1780    0.0390 O   0  0  0  0  0  0  0  0  0  0  0  0
    0.2910    2.2240    0.0740 C   0  0  2  0  0  0  0  0  0  0  0  0
    2.0980    0.4910   -0.1590 H   0  0  0  0  0  0  0  0  0  0  0  0
   -0.8520    2.9430    0.0020 C   0  0  0  0  0  0  0  0  0  0  0  0
   -0.8760    4.3000   -0.0010 C   0  0  2  0  0  0  0  0  0  0  0  0
    0.3230    4.9750    0.0460 C   0  0  1  0  0  0  0  0  0  0  0  0
    1.4750    4.2490    0.1530 C   0  0  2  0  0  0  0  0  0  0  0  0
    1.4510    2.8960    0.1790 C   0  0  0  0  0  0  0  0  0  0  0  0
    0.4330    6.4410   -0.1720 C   0  0  0  0  0  0  0  0  0  0  0  0
   -2.2400    4.9940   -0.0520 C   0  0  0  0  0  0  0  0  0  0  0  0
   -1.7830    2.3880   -0.0780 H   0  0  0  0  0  0  0  0  0  0  0  0
    2.3980    2.3720    0.2700 H   0  0  0  0  0  0  0  0  0  0  0  0
    2.7660    4.8740    0.2460 C   0  0  0  0  0  0  0  0  0  0  0  0
   -0.3720    7.4360    0.2400 C   0  0  0  0  0  0  0  0  0  0  0  0
   -0.3070    8.8430   -0.2840 C   0  0  2  0  0  0  0  0  0  0  0  0
   -1.2120    7.2470    0.8960 H   0  0  0  0  0  0  0  0  0  0  0  0
    1.2640    6.7330   -0.8200 H   0  0  0  0  0  0  0  0  0  0  0  0
    3.8180    5.3570    0.3170 N   0  0  0  0  0  0  0  0  0  0  0  0
    0.8720    9.7010    0.0990 C   0  0  0  0  0  0  0  0  0  0  0  0
    0.2030   10.9680    0.2390 N   0  0  0  0  0  0  0  0  0  0  0  0
   -1.1390   10.8280    0.4180 N   0  0  0  0  0  0  0  0  0  0  0  0
   -1.4550    9.6220    0.2460 N   0  0  0  0  0  0  0  0  0  0  0  0
    0.7850   12.1920    0.0730 C   0  0  0  0  0  0  0  0  0  0  0  0
    1.6540    9.7400   -0.6650 H   0  0  0  0  0  0  0  0  0  0  0  0
    1.3140    9.4330    1.0650 H   0  0  0  0  0  0  0  0  0  0  0  0
   -0.4200    8.8230   -1.3770 H   0  0  0  0  0  0  0  0  0  0  0  0
   -3.5160    4.1540    0.0180 C   0  0  0  0  0  0  0  0  0  0  0  0
   -3.5440    3.5590    0.9390 H   0  0  0  0  0  0  0  0  0  0  0  0
   -3.6140    3.4870   -0.8420 H   0  0  0  0  0  0  0  0  0  0  0  0
   -4.3910    4.8130    0.0340 H   0  0  0  0  0  0  0  0  0  0  0  0
   -2.3150    5.6330    0.8330 H   0  0  0  0  0  0  0  0  0  0  0  0
   -2.2960    5.6200   -0.9500 H   0  0  0  0  0  0  0  0  0  0  0  0
   -0.0780   13.2250    0.1640 O   0  0  0  0  0  0  0  0  0  0  0  0
    1.9630   12.4070   -0.1730 O   0  0  0  0  0  0  0  0  0  0  0  0
    0.4720   14.0120   -0.0170 H   0  0  0  0  0  0  0  0  0  0  0  0
  1  5  1  0  0  0  0
  2  1  1  0  0  0  0
  3  2  2  0  0  0  0
  4  2  1  6  0  0  0
  4 10  5  0  0  0  0
  6  4  5  0  0  0  0
  6  7  5  0  0  0  0
  6 13  1  0  0  0  0
  7 12  1  1  0  0  0
  8  7  5  0  0  0  0
  8 11  1  6  0  0  0
  9  8  5  0  0  0  0
  9 15  1  1  0  0  0
 10  9  5  0  0  0  0
 10 14  1  0  0  0  0
 11 19  1  0  0  0  0
 12 33  1  0  0  0  0
 12 34  1  0  0  0  0
 15 20  3  0  0  0  0
 16 11  2  0  0  0  0
 16 18  1  0  0  0  0
 17 16  1  0  0  0  0
 17 24  1  0  0  0  0
 17 28  1  6  0  0  0
 21 17  1  0  0  0  0
 21 26  1  0  0  0  0
 21 27  1  0  0  0  0
 22 21  1  0  0  0  0
 23 22  1  0  0  0  0
 24 23  2  0  0  0  0
 25 22  1  0  0  0  0
 25 36  2  0  0  0  0
 29 30  1  0  0  0  0
 29 31  1  0  0  0  0
 29 32  1  0  0  0  0
 29 12  1  0  0  0  0
 35 25  1  0  0  0  0
 37 35  1  0  0  0  0
M  END
