37

O          1.26300        0.01200       -0.05500
C          0.12600        0.73100        0.02600
O         -0.96400        0.17800        0.03900
C          0.29100        2.22400        0.07400
H          2.09800        0.49100       -0.15900
C         -0.85200        2.94300        0.00200
C         -0.87600        4.30000       -0.00100
C          0.32300        4.97500        0.04600
C          1.47500        4.24900        0.15300
C          1.45100        2.89600        0.17900
C          0.43300        6.44100       -0.17200
C         -2.24000        4.99400       -0.05200
H         -1.78300        2.38800       -0.07800
H          2.39800        2.37200        0.27000
C          2.76600        4.87400        0.24600
C         -0.37200        7.43600        0.24000
C         -0.30700        8.84300       -0.28400
H         -1.21200        7.24700        0.89600
H          1.26400        6.73300       -0.82000
N          3.81800        5.35700        0.31700
C          0.87200        9.70100        0.09900
N          0.20300       10.96800        0.23900
N         -1.13900       10.82800        0.41800
N         -1.45500        9.62200        0.24600
C          0.78500       12.19200        0.07300
H          1.65400        9.74000       -0.66500
H          1.31400        9.43300        1.06500
H         -0.42000        8.82300       -1.37700
C         -3.51600        4.15400        0.01800
H         -3.54400        3.55900        0.93900
H         -3.61400        3.48700       -0.84200
H         -4.39100        4.81300        0.03400
H         -2.31500        5.63300        0.83300
H         -2.29600        5.62000       -0.95000
O         -0.07800       13.22500        0.16400
O          1.96300       12.40700       -0.17300
H          0.47200       14.01200       -0.01700
