
 OpenBabel11042013043D

 44 46  0  0  1  0  0  0  0  0999 V2000
    0.9650    2.0700   -0.1740 O   0  0  0  0  0  0  0  0  0  0  0  0
   -0.0600    2.9160   -0.4010 C   0  0  0  0  0  0  0  0  0  0  0  0
   -1.1850    2.4740   -0.6010 O   0  0  0  0  0  0  0  0  0  0  0  0
    0.2540    4.3900   -0.3220 C   0  0  1  0  0  0  0  0  0  0  0  0
    1.8200    2.5060   -0.0210 H   0  0  0  0  0  0  0  0  0  0  0  0
   -0.8740    5.1320   -0.2710 C   0  0  0  0  0  0  0  0  0  0  0  0
   -0.8190    6.4690   -0.1560 C   0  0  0  0  0  0  0  0  0  0  0  0
    0.3510    7.1450   -0.0680 C   0  0  2  0  0  0  0  0  0  0  0  0
    1.4780    6.3990   -0.1600 C   0  0  0  0  0  0  0  0  0  0  0  0
    1.4480    5.0410   -0.2810 C   0  0  1  0  0  0  0  0  0  0  0  0
    0.3160    8.6550    0.2250 C   0  0  1  0  0  0  0  0  0  0  0  0
   -1.7790    6.9750   -0.0940 H   0  0  0  0  0  0  0  0  0  0  0  0
   -1.8600    4.6730   -0.3070 H   0  0  0  0  0  0  0  0  0  0  0  0
    3.1190    4.1600   -0.3450 Br  0  0  0  0  0  0  0  0  0  0  0  0
    2.4390    6.9040   -0.0910 H   0  0  0  0  0  0  0  0  0  0  0  0
    1.3720    9.7500   -0.1240 C   0  0  0  0  0  0  0  0  0  0  0  0
    0.6140   10.9630    0.4440 C   0  0  2  0  0  0  0  0  0  0  0  0
   -0.7690   10.7270   -0.0450 N   0  0  0  0  0  0  0  0  0  0  0  0
   -0.9110    9.3140   -0.2750 N   0  0  0  0  0  0  0  0  0  0  0  0
    0.9160   12.4860    0.4180 C   0  0  1  0  0  0  0  0  0  0  0  0
   -1.7170    8.9710    0.2500 H   0  0  0  0  0  0  0  0  0  0  0  0
   -0.8660   11.2440   -0.9320 H   0  0  0  0  0  0  0  0  0  0  0  0
    2.3220    9.5780    0.3910 H   0  0  0  0  0  0  0  0  0  0  0  0
    0.5740   10.7600    1.5270 H   0  0  0  0  0  0  0  0  0  0  0  0
    1.5490    9.8250   -1.2040 H   0  0  0  0  0  0  0  0  0  0  0  0
    0.2520    8.6540    1.3280 H   0  0  0  0  0  0  0  0  0  0  0  0
    2.1620   13.2280   -0.0420 C   0  0  0  0  0  0  0  0  0  0  0  0
    1.6860   14.6710    0.2790 C   0  0  2  0  0  0  0  0  0  0  0  0
    0.2690   14.6760   -0.1440 N   0  0  0  0  0  0  0  0  0  0  0  0
   -0.1280   13.2850   -0.2740 N   0  0  0  0  0  0  0  0  0  0  0  0
    2.4390   15.8910   -0.1760 C   0  0  0  0  0  0  0  0  0  0  0  0
   -1.0290   13.1030    0.1870 H   0  0  0  0  0  0  0  0  0  0  0  0
    0.1960   15.1310   -1.0600 H   0  0  0  0  0  0  0  0  0  0  0  0
    2.3700   13.0970   -1.1110 H   0  0  0  0  0  0  0  0  0  0  0  0
    1.6900   14.7550    1.3780 H   0  0  0  0  0  0  0  0  0  0  0  0
    3.0510   12.9640    0.5380 H   0  0  0  0  0  0  0  0  0  0  0  0
    0.8070   12.7460    1.4860 H   0  0  0  0  0  0  0  0  0  0  0  0
    1.8820   17.1200   -0.1740 C   0  0  0  0  0  0  0  0  0  0  0  0
    2.6540   18.3400   -0.4420 C   0  0  0  0  0  0  0  0  0  0  0  0
    0.8420   17.2760    0.1000 H   0  0  0  0  0  0  0  0  0  0  0  0
    3.4990   15.7840   -0.3870 H   0  0  0  0  0  0  0  0  0  0  0  0
    1.8670   19.4210   -0.2980 O   0  0  0  0  0  0  0  0  0  0  0  0
    3.8350   18.4220   -0.7190 O   0  0  0  0  0  0  0  0  0  0  0  0
    2.4640   20.1840   -0.4530 H   0  0  0  0  0  0  0  0  0  0  0  0
  1  5  1  0  0  0  0
  2  1  1  0  0  0  0
  3  2  2  0  0  0  0
  4  2  1  1  0  0  0
  4 10  5  0  0  0  0
  6  4  5  0  0  0  0
  6  7  5  0  0  0  0
  6 13  1  0  0  0  0
  7 12  1  0  0  0  0
  8  7  5  1  0  0  0
  8 11  1  0  0  0  0
  9  8  5  0  0  0  0
  9 15  1  0  0  0  0
 10  9  5  0  0  0  0
 10 14  1  1  0  0  0
 11 19  1  0  0  0  0
 11 26  1  1  0  0  0
 16 11  1  0  0  0  0
 16 23  1  0  0  0  0
 16 25  1  0  0  0  0
 17 16  1  0  0  0  0
 17 24  1  1  0  0  0
 18 17  1  0  0  0  0
 19 18  1  0  0  0  0
 20 17  1  0  0  0  0
 20 30  1  0  0  0  0
 20 37  1  1  0  0  0
 21 19  1  0  0  0  0
 22 18  1  0  0  0  0
 27 20  1  0  0  0  0
 27 34  1  0  0  0  0
 27 36  1  0  0  0  0
 28 27  1  0  0  0  0
 28 35  1  1  0  0  0
 29 28  1  0  0  0  0
 30 29  1  0  0  0  0
 31 28  1  0  0  0  0
 31 41  1  0  0  0  0
 32 30  1  0  0  0  0
 33 29  1  0  0  0  0
 38 31  2  0  0  0  0
 38 40  1  0  0  0  0
 39 38  1  0  0  0  0
 39 43  2  0  0  0  0
 42 39  1  0  0  0  0
 44 42  1  0  0  0  0
M  END
