22

O          1.38200        0.24000        0.00900
C          0.19200        0.86500        0.02400
O         -0.85300        0.23000        0.01800
C          0.22800        2.36200        0.02700
H          2.18200        0.78700        0.00900
C         -0.98900        2.94700        0.03000
C         -1.13600        4.28500        0.00800
C         -0.03000        5.07300       -0.01600
C          1.19500        4.49300       -0.02200
C          1.32500        3.14900        0.00800
C         -0.16500        6.49100       -0.03200
Br        -2.90300        4.96600        0.01200
H         -1.88700        2.32700        0.04500
H          2.33000        2.74100        0.01200
Cl         2.66300        5.43600       -0.09400
C         -0.26400        7.68400       -0.02700
C         -0.33200        9.20100       -0.01300
C         -0.31200       10.39900       -0.00300
C         -0.22800       11.82600        0.00100
O         -1.42300       12.44000        0.00000
O          0.82900       12.43300        0.00000
H         -1.19900       13.39200       -0.00200
