
 OpenBabel11042013043D

 22 22  0  0  1  0  0  0  0  0999 V2000
    1.3820    0.2400    0.0090 O   0  0  0  0  0  0  0  0  0  0  0  0
    0.1920    0.8650    0.0240 C   0  0  0  0  0  0  0  0  0  0  0  0
   -0.8530    0.2300    0.0180 O   0  0  0  0  0  0  0  0  0  0  0  0
    0.2280    2.3620    0.0270 C   0  0  2  0  0  0  0  0  0  0  0  0
    2.1820    0.7870    0.0090 H   0  0  0  0  0  0  0  0  0  0  0  0
   -0.9890    2.9470    0.0300 C   0  0  0  0  0  0  0  0  0  0  0  0
   -1.1360    4.2850    0.0080 C   0  0  1  0  0  0  0  0  0  0  0  0
   -0.0300    5.0730   -0.0160 C   0  0  2  0  0  0  0  0  0  0  0  0
    1.1950    4.4930   -0.0220 C   0  0  1  0  0  0  0  0  0  0  0  0
    1.3250    3.1490    0.0080 C   0  0  0  0  0  0  0  0  0  0  0  0
   -0.1650    6.4910   -0.0320 C   0  0  0  0  0  0  0  0  0  0  0  0
   -2.9030    4.9660    0.0120 Br  0  0  0  0  0  0  0  0  0  0  0  0
   -1.8870    2.3270    0.0450 H   0  0  0  0  0  0  0  0  0  0  0  0
    2.3300    2.7410    0.0120 H   0  0  0  0  0  0  0  0  0  0  0  0
    2.6630    5.4360   -0.0940 Cl  0  0  0  0  0  0  0  0  0  0  0  0
   -0.2640    7.6840   -0.0270 C   0  0  0  0  0  0  0  0  0  0  0  0
   -0.3320    9.2010   -0.0130 C   0  0  0  0  0  0  0  0  0  0  0  0
   -0.3120   10.3990   -0.0030 C   0  0  0  0  0  0  0  0  0  0  0  0
   -0.2280   11.8260    0.0010 C   0  0  0  0  0  0  0  0  0  0  0  0
   -1.4230   12.4400    0.0000 O   0  0  0  0  0  0  0  0  0  0  0  0
    0.8290   12.4330    0.0000 O   0  0  0  0  0  0  0  0  0  0  0  0
   -1.1990   13.3920   -0.0020 H   0  0  0  0  0  0  0  0  0  0  0  0
  1  5  1  0  0  0  0
  2  1  1  0  0  0  0
  3  2  2  0  0  0  0
  4  2  1  6  0  0  0
  4 10  5  0  0  0  0
  6  4  5  0  0  0  0
  6  7  5  0  0  0  0
  6 13  1  0  0  0  0
  7 12  1  6  0  0  0
  8  7  5  0  0  0  0
  8 11  1  1  0  0  0
  9  8  5  0  0  0  0
  9 15  1  6  0  0  0
 10  9  5  0  0  0  0
 10 14  1  0  0  0  0
 16 11  3  0  0  0  0
 17 16  1  0  0  0  0
 18 17  3  0  0  0  0
 19 18  1  0  0  0  0
 19 21  2  0  0  0  0
 20 19  1  0  0  0  0
 22 20  1  0  0  0  0
M  END
