36

O          1.74800        0.28500        0.47000
C          0.57400        0.80500        0.02600
O         -0.28200        0.08500       -0.45700
C          0.47200        2.29900        0.10000
H          2.34900        0.90000        0.91600
C         -0.71100        2.92100        0.28500
C         -0.80300        4.27300        0.14100
C          0.31000        5.03800       -0.09800
C          1.52500        4.40100       -0.13000
C          1.57400        3.05000       -0.08300
C          0.15100        6.56200       -0.38300
C         -2.90000        4.73000       -0.84900
Cl        -2.14000        2.01400        0.73700
H          2.54100        2.57400       -0.22400
C          2.86200        5.10800       -0.22500
H         -3.64600        3.96000       -0.63100
H         -2.35400        4.48400       -1.76600
H         -3.43500        5.67000       -1.00700
O         -2.03800        4.90500        0.27900
H          2.99900        5.58200       -1.20300
H          3.70300        4.42000       -0.07700
H          2.97100        5.84200        0.58000
O          1.37200        7.31400       -0.22900
C         -0.39000        8.78100        0.28500
C         -0.90400        7.36900        0.37100
C          1.88400        9.74300       -0.24400
H         -1.89800        7.30400       -0.08000
H         -0.78300        9.42600        1.07600
H         -0.67000        9.22400       -0.67900
H         -0.97100        7.05700        1.42000
H          1.42100        8.50300        1.42400
C          1.10500        8.58200        0.37800
H         -0.08500        6.62900       -1.45600
O          1.35600       10.95000        0.05800
O          2.90700        9.67900       -0.90600
H          1.95100       11.58800       -0.38900
