34

O          1.17100        0.02500        0.28300
C         -0.12100        0.40200        0.31000
O         -1.01600       -0.42800        0.41500
C         -0.38500        1.86700        0.14500
H          1.84900        0.71400        0.19800
C         -1.67300        2.27600        0.24800
C         -1.99900        3.56400        0.01700
C         -1.05200        4.45000       -0.36000
C          0.23900        4.03600       -0.47500
C          0.56200        2.76200       -0.18300
N         -1.38600        5.74700       -0.65700
H         -3.03300        3.88500        0.09800
H         -2.47200        1.57200        0.49000
H          1.60700        2.50700       -0.29700
C          2.12800        5.45100       -0.16700
N         -0.89700        6.55000        0.16100
C         -0.68000        7.86800       -0.41600
C          0.63200        8.41100        0.09200
N          0.22100        9.67300        0.63000
N         -1.14600        9.80300        0.63100
N         -1.68300        8.80600        0.09800
N          0.96200       10.77600        0.33900
H          1.37500        8.53600       -0.70400
H          1.06900        7.82800        0.90900
H         -0.68500        7.85500       -1.51500
N          0.39100       11.43600       -0.56200
C          0.40800       12.75500       -0.26900
H          1.72800        5.60200        0.84000
H          3.04000        4.85400       -0.13300
H          2.39200        6.42500       -0.59100
O          1.18700        4.86900       -1.05900
O         -0.84500       13.25100       -0.22000
O          1.37000       13.48300       -0.03500
H         -0.71800       14.15900        0.09400
