40

O          1.94200        0.34700       -0.66900
C          0.96400        0.70000        0.19000
O          0.44300       -0.08400        0.96800
C          0.61800        2.14000        0.11800
H          2.20800        1.05000       -1.29400
C         -0.67900        2.46500       -0.00900
C         -1.07100        3.75500        0.02800
C         -0.16200        4.76500        0.18300
C          1.14800        4.40900        0.26500
C          1.54000        3.11700        0.24100
C         -0.61300        6.21700        0.37100
Cl        -2.78700        4.04700       -0.06400
F         -1.60400        1.48600       -0.16200
H          2.59200        2.87200        0.36400
H          1.90600        5.17800        0.40800
O          0.43600        7.20200        0.62500
C         -1.09100        8.34300       -0.69500
C         -1.46900        6.87000       -0.72600
C          0.46800        9.75100        0.85800
H         -2.53400        6.76200       -0.49400
H         -0.47400        8.57700       -1.56800
H         -1.96900        8.99600       -0.70500
H         -1.29700        6.43900       -1.71700
H         -1.01100        8.38300        1.43500
C         -0.30200        8.44900        0.59500
H         -1.19600        6.20100        1.30500
C          1.50200       10.27500       -0.12300
C          1.65200       11.72300        0.34500
N          0.32700       12.08800        0.91000
N         -0.47400       10.88800        0.90300
C          2.09000       12.70700       -0.73400
H         -1.06800       10.82500        1.73500
H         -0.08300       12.82000        0.31100
H          2.45100        9.73500       -0.04900
H          2.37900       11.79700        1.16400
H          1.16000       10.23100       -1.16400
H          0.95800        9.64800        1.83700
O          1.29300       13.79600       -0.84600
O          3.09100       12.61200       -1.42900
H          1.74700       14.36500       -1.50300
