
 OpenBabel11042013043D

 31 32  0  0  1  0  0  0  0  0999 V2000
    1.2930   -0.2150   -0.1190 O   0  0  0  0  0  0  0  0  0  0  0  0
    0.0720    0.3640   -0.1030 C   0  0  0  0  0  0  0  0  0  0  0  0
   -0.9140   -0.3470    0.0110 O   0  0  0  0  0  0  0  0  0  0  0  0
    0.0450    1.8710   -0.1810 C   0  0  1  0  0  0  0  0  0  0  0  0
    2.0850    0.3410   -0.0710 H   0  0  0  0  0  0  0  0  0  0  0  0
   -1.1000    2.5560    0.0540 C   0  0  2  0  0  0  0  0  0  0  0  0
   -1.0790    3.9030    0.0880 C   0  0  0  0  0  0  0  0  0  0  0  0
    0.0490    4.6360   -0.0880 C   0  0  2  0  0  0  0  0  0  0  0  0
    1.1800    3.9500   -0.4060 C   0  0  2  0  0  0  0  0  0  0  0  0
    1.1580    2.5950   -0.4570 C   0  0  0  0  0  0  0  0  0  0  0  0
    0.0120    6.1310    0.2480 C   0  0  1  0  0  0  0  0  0  0  0  0
   -2.0170    4.3990    0.3290 H   0  0  0  0  0  0  0  0  0  0  0  0
   -2.6520    1.8380    0.3840 Cl  0  0  0  0  0  0  0  0  0  0  0  0
    2.0950    2.1080   -0.7020 H   0  0  0  0  0  0  0  0  0  0  0  0
    2.8490    4.7900   -0.6900 Br  0  0  0  0  0  0  0  0  0  0  0  0
    0.6770    7.0730   -0.6250 O   0  0  0  0  0  0  0  0  0  0  0  0
   -1.0700    8.2660    0.3620 C   0  0  0  0  0  0  0  0  0  0  0  0
   -1.3560    6.7860    0.4660 C   0  0  0  0  0  0  0  0  0  0  0  0
    0.7480    9.5710   -0.6190 C   0  0  0  0  0  0  0  0  0  0  0  0
   -2.0680    6.5130   -0.3220 H   0  0  0  0  0  0  0  0  0  0  0  0
   -1.3280    8.8220    1.2690 H   0  0  0  0  0  0  0  0  0  0  0  0
   -1.6640    8.6890   -0.4610 H   0  0  0  0  0  0  0  0  0  0  0  0
   -1.7880    6.5190    1.4340 H   0  0  0  0  0  0  0  0  0  0  0  0
    0.9980    8.3010    0.9980 H   0  0  0  0  0  0  0  0  0  0  0  0
    0.4200    8.3200    0.0630 C   0  0  2  0  0  0  0  0  0  0  0  0
    0.5510    6.1800    1.2100 H   0  0  0  0  0  0  0  0  0  0  0  0
    0.7950   10.7600   -0.7730 C   0  0  0  0  0  0  0  0  0  0  0  0
    0.6600   12.1810   -0.6170 C   0  0  0  0  0  0  0  0  0  0  0  0
   -0.6050   12.5530   -0.3390 O   0  0  0  0  0  0  0  0  0  0  0  0
    1.5910   12.9670   -0.6100 O   0  0  0  0  0  0  0  0  0  0  0  0
   -0.5400   13.5110   -0.1540 H   0  0  0  0  0  0  0  0  0  0  0  0
  1  5  1  0  0  0  0
  2  1  1  0  0  0  0
  3  2  2  0  0  0  0
  4  2  1  1  0  0  0
  4 10  5  0  0  0  0
  6  4  5  0  0  0  0
  6  7  5  0  0  0  0
  6 13  1  1  0  0  0
  7 12  1  0  0  0  0
  8  7  5  1  0  0  0
  8 11  1  0  0  0  0
  9  8  5  0  0  0  0
  9 15  1  1  0  0  0
 10  9  5  0  0  0  0
 10 14  1  0  0  0  0
 11 18  1  0  0  0  0
 11 26  1  1  0  0  0
 16 11  1  0  0  0  0
 17 25  1  0  0  0  0
 17 22  1  0  0  0  0
 18 17  1  0  0  0  0
 18 23  1  0  0  0  0
 19 25  1  0  0  0  0
 20 18  1  0  0  0  0
 21 17  1  0  0  0  0
 25 16  1  0  0  0  0
 25 24  1  1  0  0  0
 27 19  3  0  0  0  0
 28 27  1  0  0  0  0
 28 30  2  0  0  0  0
 29 28  1  0  0  0  0
 31 29  1  0  0  0  0
M  END
