31

O          1.29300       -0.21500       -0.11900
C          0.07200        0.36400       -0.10300
O         -0.91400       -0.34700        0.01100
C          0.04500        1.87100       -0.18100
H          2.08500        0.34100       -0.07100
C         -1.10000        2.55600        0.05400
C         -1.07900        3.90300        0.08800
C          0.04900        4.63600       -0.08800
C          1.18000        3.95000       -0.40600
C          1.15800        2.59500       -0.45700
C          0.01200        6.13100        0.24800
H         -2.01700        4.39900        0.32900
Cl        -2.65200        1.83800        0.38400
H          2.09500        2.10800       -0.70200
Br         2.84900        4.79000       -0.69000
O          0.67700        7.07300       -0.62500
C         -1.07000        8.26600        0.36200
C         -1.35600        6.78600        0.46600
C          0.74800        9.57100       -0.61900
H         -2.06800        6.51300       -0.32200
H         -1.32800        8.82200        1.26900
H         -1.66400        8.68900       -0.46100
H         -1.78800        6.51900        1.43400
H          0.99800        8.30100        0.99800
C          0.42000        8.32000        0.06300
H          0.55100        6.18000        1.21000
C          0.79500       10.76000       -0.77300
C          0.66000       12.18100       -0.61700
O         -0.60500       12.55300       -0.33900
O          1.59100       12.96700       -0.61000
H         -0.54000       13.51100       -0.15400
