35

O          1.04100        0.02200        0.15700
C         -0.22900        0.41100       -0.09900
O         -1.16000       -0.37600       -0.18200
C         -0.37700        1.88600       -0.19400
H          1.64300        0.75700        0.37800
C         -1.42100        2.47200        0.42700
C         -1.53500        3.81800        0.42500
C         -0.61700        4.59100       -0.20400
C          0.38200        3.97600       -0.88700
C          0.51100        2.63600       -0.87800
C         -0.64300        6.06300       -0.11500
H         -2.36500        4.27100        0.96200
H         -2.15800        1.86900        0.95100
H          1.33900        2.17900       -1.41300
H          1.11400        4.55900       -1.43600
C         -1.69000        6.77000       -0.59600
C         -1.72000        8.11200       -0.49900
C         -0.68800        8.79600        0.04900
C          0.37100        8.09100        0.52400
C          0.39300        6.73200        0.47000
N         -0.73700       10.17200        0.18000
H         -2.59000        8.65100       -0.86500
H         -2.53700        6.25800       -1.05200
C          2.66600        5.97100        0.48700
C          1.48200        8.79600        1.08400
H          3.02500        4.93600        0.51300
H          2.63900        6.30500       -0.55400
H          3.36700        6.57800        1.06400
O          1.38800        5.99700        1.11800
N          2.42200        9.35300        1.47900
N         -0.53100       10.82100       -0.87000
C         -0.19900       12.12300       -0.57400
O         -1.29200       12.85900       -0.26800
O          0.92400       12.59900       -0.61400
H         -2.04900       12.24800       -0.29000
