
 OpenBabel11042013043D

 33 34  0  0  1  0  0  0  0  0999 V2000
    1.6310    0.0520   -0.5920 O   0  0  0  0  0  0  0  0  0  0  0  0
    0.5560    0.6000    0.0050 C   0  0  0  0  0  0  0  0  0  0  0  0
   -0.3060   -0.1340    0.4770 O   0  0  0  0  0  0  0  0  0  0  0  0
    0.4300    2.1000    0.0030 C   0  0  1  0  0  0  0  0  0  0  0  0
    2.3470    0.6000   -0.9560 H   0  0  0  0  0  0  0  0  0  0  0  0
   -0.8250    2.6230   -0.0660 C   0  0  2  0  0  0  0  0  0  0  0  0
   -1.0240    3.9550    0.0820 C   0  0  2  0  0  0  0  0  0  0  0  0
    0.0110    4.8180    0.2280 C   0  0  2  0  0  0  0  0  0  0  0  0
    1.2550    4.2860    0.2210 C   0  0  0  0  0  0  0  0  0  0  0  0
    1.4800    2.9540    0.1420 C   0  0  1  0  0  0  0  0  0  0  0  0
   -0.2120    6.3060    0.5040 C   0  0  1  0  0  0  0  0  0  0  0  0
   -2.3330    4.4150    0.1760 O   0  0  0  0  0  0  0  0  0  0  0  0
   -2.0150    1.8360   -0.2560 N   0  0  0  0  0  0  0  0  0  0  0  0
    2.8300    2.4990    0.2390 C   0  0  0  0  0  0  0  0  0  0  0  0
    2.1060    4.9660    0.3390 H   0  0  0  0  0  0  0  0  0  0  0  0
    0.8380    7.1690    0.0090 O   0  0  0  0  0  0  0  0  0  0  0  0
   -1.1390    8.4570    0.0480 C   0  0  0  0  0  0  0  0  0  0  0  0
   -1.4700    6.9850   -0.0240 C   0  0  0  0  0  0  0  0  0  0  0  0
    0.9850    9.6940   -0.4580 C   0  0  0  0  0  0  0  0  0  0  0  0
   -1.6630    6.7060   -1.0660 H   0  0  0  0  0  0  0  0  0  0  0  0
   -1.4510    8.9610   -0.8740 H   0  0  0  0  0  0  0  0  0  0  0  0
   -1.6660    8.9490    0.8740 H   0  0  0  0  0  0  0  0  0  0  0  0
   -2.3600    6.7620    0.5720 H   0  0  0  0  0  0  0  0  0  0  0  0
    0.5760    8.6800    1.3420 H   0  0  0  0  0  0  0  0  0  0  0  0
    0.3680    8.5020    0.2790 C   0  0  2  0  0  0  0  0  0  0  0  0
   -0.1950    6.4060    1.6000 H   0  0  0  0  0  0  0  0  0  0  0  0
    3.9060    2.0530    0.2310 N   0  0  0  0  0  0  0  0  0  0  0  0
   -1.8650    0.8520   -0.4860 H   0  0  0  0  0  0  0  0  0  0  0  0
   -2.7140    2.2490   -0.8690 H   0  0  0  0  0  0  0  0  0  0  0  0
   -2.9110    3.6880    0.4770 H   0  0  0  0  0  0  0  0  0  0  0  0
    0.3470   10.8520   -0.1480 O   0  0  0  0  0  0  0  0  0  0  0  0
    1.9550    9.7070   -1.1930 O   0  0  0  0  0  0  0  0  0  0  0  0
    0.8320   11.5460   -0.6420 H   0  0  0  0  0  0  0  0  0  0  0  0
  1  5  1  0  0  0  0
  2  1  1  0  0  0  0
  3  2  2  0  0  0  0
  4  2  1  1  0  0  0
  4 10  5  0  0  0  0
  6  4  5  0  0  0  0
  6  7  5  0  0  0  0
  6 13  1  1  0  0  0
  7 12  1  1  0  0  0
  8  7  5  0  0  0  0
  8  9  5  1  0  0  0
  8 11  1  0  0  0  0
  9 15  1  0  0  0  0
 10  9  5  0  0  0  0
 10 14  1  1  0  0  0
 11 18  1  0  0  0  0
 11 26  1  1  0  0  0
 12 30  1  0  0  0  0
 13 28  1  0  0  0  0
 13 29  1  0  0  0  0
 14 27  3  0  0  0  0
 16 11  1  0  0  0  0
 17 25  1  0  0  0  0
 17 22  1  0  0  0  0
 18 17  1  0  0  0  0
 18 23  1  0  0  0  0
 19 25  1  0  0  0  0
 19 32  2  0  0  0  0
 20 18  1  0  0  0  0
 21 17  1  0  0  0  0
 25 16  1  0  0  0  0
 25 24  1  1  0  0  0
 31 19  1  0  0  0  0
 33 31  1  0  0  0  0
M  END
