45

O          1.17600       -0.60800        0.03000
C          0.03600        0.04500        0.33600
O         -1.00400       -0.56300        0.56800
C          0.14000        1.53600        0.26600
H          1.89600        0.04900       -0.13700
C         -1.04700        2.16100        0.39600
C         -1.13000        3.47200        0.16600
C         -0.05100        4.24200       -0.14100
C          1.18100        3.64700       -0.08900
C          1.24800        2.29000        0.04900
C         -0.33000        5.68500       -0.62400
H         -2.14200        3.86300        0.19300
H         -1.95900        1.61400        0.61700
N          2.51800        1.60600       -0.12000
C          2.43200        4.50500       -0.18900
O          0.63000        6.73300       -0.32300
C         -1.52400        7.63300       -0.07400
C         -1.69600        6.18000       -0.17700
C          0.26100        9.27600       -0.19300
H         -2.48300        5.91100       -0.88900
H         -1.74600        8.07800       -1.05400
H         -2.21000        8.05800        0.66600
H         -1.98200        5.82200        0.81800
H          0.13200        7.74000        1.37300
C         -0.05600        7.84100        0.29900
H         -0.33100        5.62200       -1.72100
H          2.36200        5.38500        0.46100
H          2.62600        4.81700       -1.22000
H          3.32400        3.99600        0.19000
H          2.99900        2.04100       -0.91800
H          3.13500        1.91300        0.64000
O          1.46700        9.99000        0.16000
C         -0.31200       11.54900       -0.06100
C         -0.77100       10.21800        0.41900
C          1.85700       12.60900        0.31600
H         -1.80800       10.05400        0.12700
H         -0.59000       12.31400        0.67200
H         -0.79000       11.80600       -1.01200
H         -0.70300       10.16600        1.51600
H          1.43200       11.38000       -1.33500
C          1.19300       11.35200       -0.26200
H          0.23100        9.27000       -1.29200
O          1.27200       13.73400       -0.16600
O          2.78100       12.67700        1.11600
H          1.66400       14.48200        0.32600
