30

O          0.78500        0.30000       -0.85800
C         -0.19500        1.04000       -0.29500
O         -1.22900        0.49900        0.06900
C          0.07100        2.52000       -0.21600
H          1.55800        0.79000       -1.17700
C         -1.06300        3.27000       -0.21200
C         -1.03500        4.61500       -0.14800
C          0.14000        5.26800       -0.12300
C          1.26100        4.52000       -0.13200
C          1.27700        3.16200       -0.14000
C          0.31600        6.71000       -0.02500
H         -1.98400        5.14100       -0.11500
F         -2.28900        2.70200       -0.26100
C          2.69300        2.60600        0.00700
H          2.21700        5.04600       -0.11200
C          2.93400        1.36400        0.85300
H          3.59400        1.60300        1.69400
H          2.02400        0.93300        1.27200
H          3.44900        0.60600        0.25400
H          3.31000        3.37600        0.49900
H          3.14100        2.49100       -0.98900
C         -0.57000        7.71200       -0.07300
N         -0.11700        8.99500        0.06900
H         -1.63400        7.55100       -0.21200
H          1.35000        7.02800        0.11900
N         -0.92100        9.90500       -0.19900
C         -0.32700       11.14000       -0.04300
O         -1.22900       12.13200       -0.10900
O          0.85600       11.41800        0.12400
H         -0.68000       12.93000        0.01600
