
 OpenBabel11042013043D

 26 27  0  0  1  0  0  0  0  0999 V2000
    1.3620    0.0300    0.0720 O   0  0  0  0  0  0  0  0  0  0  0  0
    0.1350    0.5850    0.1820 C   0  0  0  0  0  0  0  0  0  0  0  0
   -0.8540   -0.1270    0.2830 O   0  0  0  0  0  0  0  0  0  0  0  0
    0.0900    2.0730    0.1210 C   0  0  2  0  0  0  0  0  0  0  0  0
    2.1150    0.6470   -0.0010 H   0  0  0  0  0  0  0  0  0  0  0  0
   -1.1150    2.6790    0.0950 C   0  0  1  0  0  0  0  0  0  0  0  0
   -1.2110    4.0150   -0.0210 C   0  0  0  0  0  0  0  0  0  0  0  0
   -0.1120    4.8020   -0.1190 C   0  0  1  0  0  0  0  0  0  0  0  0
    1.0900    4.1880   -0.0430 C   0  0  1  0  0  0  0  0  0  0  0  0
    1.1910    2.8500    0.0740 C   0  0  2  0  0  0  0  0  0  0  0  0
   -0.2620    6.2890   -0.3750 C   0  0  2  0  0  0  0  0  0  0  0  0
   -2.2110    4.4440   -0.0680 H   0  0  0  0  0  0  0  0  0  0  0  0
   -2.2650    1.9750    0.1490 F   0  0  0  0  0  0  0  0  0  0  0  0
    2.4230    2.2960    0.1090 F   0  0  0  0  0  0  0  0  0  0  0  0
    2.2260    4.9130   -0.1290 F   0  0  0  0  0  0  0  0  0  0  0  0
    0.8190    7.2740    0.0120 C   0  0  0  0  0  0  0  0  0  0  0  0
   -0.0050    8.4430    0.1880 N   0  0  0  0  0  0  0  0  0  0  0  0
   -1.2990    8.1180    0.4600 N   0  0  0  0  0  0  0  0  0  0  0  0
   -1.4490    6.8750    0.3070 N   0  0  0  0  0  0  0  0  0  0  0  0
    0.4070    9.7330    0.0080 C   0  0  0  0  0  0  0  0  0  0  0  0
    1.5790    7.4260   -0.7590 H   0  0  0  0  0  0  0  0  0  0  0  0
    1.2960    7.0530    0.9730 H   0  0  0  0  0  0  0  0  0  0  0  0
   -0.4440    6.3940   -1.4560 H   0  0  0  0  0  0  0  0  0  0  0  0
   -0.5810   10.6460    0.1180 O   0  0  0  0  0  0  0  0  0  0  0  0
    1.5400   10.0980   -0.2690 O   0  0  0  0  0  0  0  0  0  0  0  0
   -0.1400   11.4970   -0.0740 H   0  0  0  0  0  0  0  0  0  0  0  0
  1  5  1  0  0  0  0
  2  1  1  0  0  0  0
  3  2  2  0  0  0  0
  4  2  1  6  0  0  0
  4 10  5  0  0  0  0
  6  4  5  0  0  0  0
  6  7  5  0  0  0  0
  6 13  1  6  0  0  0
  7 12  1  0  0  0  0
  8  7  5  6  0  0  0
  8 11  1  0  0  0  0
  9  8  5  0  0  0  0
  9 15  1  6  0  0  0
 10  9  5  0  0  0  0
 10 14  1  6  0  0  0
 11 19  1  0  0  0  0
 11 23  1  6  0  0  0
 16 11  1  0  0  0  0
 16 21  1  0  0  0  0
 16 22  1  0  0  0  0
 17 16  1  0  0  0  0
 18 17  1  0  0  0  0
 19 18  2  0  0  0  0
 20 17  1  0  0  0  0
 20 25  2  0  0  0  0
 24 20  1  0  0  0  0
 26 24  1  0  0  0  0
M  END
