52

O          1.56900       -1.76800       -0.12400
C          0.39900       -1.09900       -0.08100
O         -0.66800       -1.69800       -0.05600
C          0.50600        0.39500       -0.04800
H          2.36700       -1.22700       -0.22000
C         -0.66200        1.05800       -0.20000
C         -0.70100        2.39700       -0.12400
C          0.40800        3.14200        0.13300
C          1.57900        2.46500        0.23100
C          1.63200        1.11800        0.14100
C          0.30600        4.62100        0.27600
H         -1.67500        2.85300       -0.26900
H         -1.59100        0.51900       -0.36900
H          2.60600        0.65800        0.25800
H          2.51100        2.99400        0.40500
C         -0.87600        5.18100        0.62100
C         -1.06600        6.50500        0.57800
C         -0.07200        7.35000        0.22700
C          1.17800        6.83000        0.06600
C          1.33500        5.48000        0.06100
C         -0.41800        8.76600       -0.20900
H         -2.07700        6.85100        0.76500
H         -1.74200        4.58000        0.88100
H          2.32400        5.09200       -0.16400
C          2.37900        7.72100       -0.15900
O          0.19500        9.88600        0.46200
C         -1.85600       10.64500       -0.44700
C         -1.89400        9.14900       -0.25700
C         -0.02700       12.39900        0.19200
H         -2.44200        8.63400       -1.05200
H         -2.21600       10.95100       -1.43500
H         -2.51700       11.09100        0.30000
H         -2.39300        8.94700        0.69800
H          0.07000       10.93600       -1.27900
C         -0.37500       10.99700       -0.27100
H         -0.06300        8.79900       -1.25400
H          2.59200        8.28600        0.75700
H          2.22700        8.42700       -0.98000
H          3.28300        7.14700       -0.39100
C         -0.96700       13.28400        0.60200
C         -0.68900       14.59300        0.72500
C          0.55000       15.04100        0.44600
C          1.52800       14.16700        0.12500
C          1.23500       12.85700        0.00000
C          0.83700       16.49100        0.40900
H         -1.48600       15.28200        0.99200
H         -1.99600       12.98900        0.77400
H          2.01800       12.17300       -0.32400
H          2.53500       14.51600       -0.08900
O         -0.25300       17.21500        0.07200
O          1.92500       17.02600        0.53900
H          0.08500       18.12700       -0.03500
