21

O          1.70500        0.31300        0.28200
C          0.48500        0.88300        0.15900
O         -0.49600        0.15800        0.09000
C          0.45300        2.39600        0.08300
H          2.50100        0.86300        0.28300
C         -0.73800        3.02700       -0.09200
C         -0.78900        4.38100       -0.24000
C          0.34600        5.13500       -0.19200
C          1.51800        4.49000        0.02700
C          1.57100        3.15000        0.16200
N          0.35100        6.49600       -0.43800
Br        -2.48700        5.18900       -0.56400
O         -1.91800        2.29700       -0.13800
H          2.55200        2.72100        0.32100
Cl         3.02600        5.36300        0.11800
H         -2.71000        2.85400       -0.24000
N         -0.18100        7.23200        0.42300
C         -0.13100        8.54400        0.01800
O         -1.29800        9.18300        0.24000
O          0.79900        9.15200       -0.49800
H         -1.11900       10.07300       -0.12300
