
 OpenBabel11042013033D

 24 24  0  0  1  0  0  0  0  0999 V2000
    1.2340    0.2230   -0.0070 O   0  0  0  0  0  0  0  0  0  0  0  0
    0.0270    0.8250    0.0930 C   0  0  0  0  0  0  0  0  0  0  0  0
   -0.9590    0.1180    0.2340 O   0  0  0  0  0  0  0  0  0  0  0  0
    0.0080    2.3390    0.0440 C   0  0  1  0  0  0  0  0  0  0  0  0
    2.0310    0.7450   -0.1750 H   0  0  0  0  0  0  0  0  0  0  0  0
   -1.1470    3.0620    0.0240 C   0  0  1  0  0  0  0  0  0  0  0  0
   -1.1200    4.4320    0.0100 C   0  0  2  0  0  0  0  0  0  0  0  0
    0.0650    5.1110   -0.0020 C   0  0  2  0  0  0  0  0  0  0  0  0
    1.1940    4.3620    0.0080 C   0  0  0  0  0  0  0  0  0  0  0  0
    1.1730    3.0240    0.0380 C   0  0  0  0  0  0  0  0  0  0  0  0
    0.3250    6.5640   -0.0100 C   0  0  0  0  0  0  0  0  0  0  0  0
   -2.6450    5.3030    0.0170 Cl  0  0  0  0  0  0  0  0  0  0  0  0
   -2.7150    2.2570    0.0120 Cl  0  0  0  0  0  0  0  0  0  0  0  0
    2.1490    2.5540    0.0670 H   0  0  0  0  0  0  0  0  0  0  0  0
    2.1780    4.8370    0.0020 H   0  0  0  0  0  0  0  0  0  0  0  0
   -0.4760    7.6400   -0.0420 C   0  0  0  0  0  0  0  0  0  0  0  0
    0.0450    8.9090   -0.0390 N   0  0  0  0  0  0  0  0  0  0  0  0
   -1.5540    7.5750   -0.0730 H   0  0  0  0  0  0  0  0  0  0  0  0
    1.3860    6.8240    0.0160 H   0  0  0  0  0  0  0  0  0  0  0  0
   -0.8110    9.8180    0.0140 N   0  0  0  0  0  0  0  0  0  0  0  0
   -0.2470   11.0680   -0.0000 C   0  0  0  0  0  0  0  0  0  0  0  0
   -1.2010   12.0230    0.0220 O   0  0  0  0  0  0  0  0  0  0  0  0
    0.9320   11.3980   -0.0280 O   0  0  0  0  0  0  0  0  0  0  0  0
   -0.6770   12.8480    0.0030 H   0  0  0  0  0  0  0  0  0  0  0  0
  1  5  1  0  0  0  0
  2  1  1  0  0  0  0
  3  2  2  0  0  0  0
  4  2  1  1  0  0  0
  4 10  5  0  0  0  0
  6  4  5  0  0  0  0
  6  7  5  0  0  0  0
  6 13  1  6  0  0  0
  7 12  1  1  0  0  0
  8  7  5  0  0  0  0
  8 11  1  1  0  0  0
  9  8  5  0  0  0  0
  9 15  1  0  0  0  0
 10  9  5  0  0  0  0
 10 14  1  0  0  0  0
 11 19  1  0  0  0  0
 16 11  2  0  0  0  0
 16 18  1  0  0  0  0
 17 16  1  0  0  0  0
 20 17  2  0  0  0  0
 21 20  1  0  0  0  0
 21 23  2  0  0  0  0
 22 21  1  0  0  0  0
 24 22  1  0  0  0  0
M  END
