
 OpenBabel11042013043D

 26 26  0  0  1  0  0  0  0  0999 V2000
    1.0920    0.1550   -0.0790 O   0  0  0  0  0  0  0  0  0  0  0  0
   -0.0770    0.8270   -0.1100 C   0  0  0  0  0  0  0  0  0  0  0  0
   -1.1430    0.2280   -0.1160 O   0  0  0  0  0  0  0  0  0  0  0  0
    0.0130    2.3260   -0.1180 C   0  0  1  0  0  0  0  0  0  0  0  0
    1.9210    0.6520   -0.0530 H   0  0  0  0  0  0  0  0  0  0  0  0
   -1.1560    3.0060   -0.0840 C   0  0  0  0  0  0  0  0  0  0  0  0
   -1.1970    4.3620   -0.0530 C   0  0  2  0  0  0  0  0  0  0  0  0
   -0.0240    5.0510   -0.0870 C   0  0  2  0  0  0  0  0  0  0  0  0
    1.1530    4.3750   -0.1180 C   0  0  2  0  0  0  0  0  0  0  0  0
    1.1660    3.0240   -0.1340 C   0  0  0  0  0  0  0  0  0  0  0  0
    0.0050    6.4820   -0.0720 C   0  0  0  0  0  0  0  0  0  0  0  0
   -2.5550    5.0270    0.0440 C   0  0  0  0  0  0  0  0  0  0  0  0
   -2.0970    2.4530   -0.0650 H   0  0  0  0  0  0  0  0  0  0  0  0
    2.1350    2.5380   -0.1540 H   0  0  0  0  0  0  0  0  0  0  0  0
    2.4150    5.0570   -0.1010 C   0  0  0  0  0  0  0  0  0  0  0  0
    3.4550    5.5690   -0.0590 N   0  0  0  0  0  0  0  0  0  0  0  0
    0.1600    7.6710   -0.0740 C   0  0  0  0  0  0  0  0  0  0  0  0
    0.4420    8.9790   -0.0730 N   0  0  0  0  0  0  0  0  0  0  0  0
   -0.6070    9.6510   -0.0450 N   0  0  0  0  0  0  0  0  0  0  0  0
   -0.3340   10.9940   -0.0090 C   0  0  0  0  0  0  0  0  0  0  0  0
   -3.2480    4.6350   -0.7090 H   0  0  0  0  0  0  0  0  0  0  0  0
   -2.5210    6.1120   -0.0960 H   0  0  0  0  0  0  0  0  0  0  0  0
   -2.9810    4.8450    1.0380 H   0  0  0  0  0  0  0  0  0  0  0  0
   -1.4720   11.7200   -0.0070 O   0  0  0  0  0  0  0  0  0  0  0  0
    0.7430   11.5730    0.0260 O   0  0  0  0  0  0  0  0  0  0  0  0
   -1.1300   12.6360    0.0270 H   0  0  0  0  0  0  0  0  0  0  0  0
  1  5  1  0  0  0  0
  2  1  1  0  0  0  0
  3  2  2  0  0  0  0
  4  2  1  1  0  0  0
  4 10  5  0  0  0  0
  6  4  5  0  0  0  0
  6  7  5  0  0  0  0
  6 13  1  0  0  0  0
  7 12  1  1  0  0  0
  8  7  5  0  0  0  0
  8 11  1  1  0  0  0
  9  8  5  0  0  0  0
  9 15  1  1  0  0  0
 10  9  5  0  0  0  0
 10 14  1  0  0  0  0
 12 21  1  0  0  0  0
 12 22  1  0  0  0  0
 12 23  1  0  0  0  0
 15 16  3  0  0  0  0
 17 11  3  0  0  0  0
 18 17  1  0  0  0  0
 19 18  2  0  0  0  0
 20 19  1  0  0  0  0
 20 25  2  0  0  0  0
 24 20  1  0  0  0  0
 26 24  1  0  0  0  0
M  END
