36

O          1.74400       -0.11300       -0.08500
C          0.57100        0.41300        0.32700
O         -0.29900       -0.26200        0.86300
C          0.44400        1.88200        0.11800
H          2.29000        0.50400       -0.60700
C         -0.69700        2.41500       -0.36800
C         -0.86200        3.76900       -0.40100
C          0.15000        4.58900        0.01600
C          1.33800        4.02100        0.35600
C          1.46900        2.68600        0.43600
C         -0.02400        6.08500        0.31900
C         -3.15000        4.21600        0.05100
N         -1.74900        1.56600       -0.84200
H          2.41300        2.28200        0.79900
O          2.44800        4.79100        0.67500
O          0.92400        6.98500       -0.30200
C         -1.00200        8.25200        0.25000
C         -1.35400        6.79200        0.13900
C          0.98000        9.55400       -0.56300
H         -2.08100        6.50400        0.90200
H         -1.49100        8.81000       -0.55700
H         -1.34800        8.68600        1.19500
H         -1.77500        6.62700       -0.85600
H          0.93900        8.38400        1.17800
C          0.52000        8.29000        0.16600
H          0.19800        6.14700        1.39900
H         -1.93200        0.75200       -0.25100
H         -2.59800        2.02500       -1.14500
H          2.40100        5.67200        0.24800
H         -2.81900        4.24500        1.09400
H         -3.80300        5.07500       -0.13300
H         -3.74400        3.31900       -0.13400
O         -2.06000        4.30700       -0.87100
O          0.27800       10.65000       -0.18500
O          1.91500        9.66400       -1.33600
H          0.67000       11.39100       -0.69200
