33

O          1.64600        0.13600       -0.27300
C          0.39300        0.52600       -0.60800
O         -0.40700       -0.25900       -1.09200
C          0.08900        1.96600       -0.29300
H          2.17700        0.79400        0.21200
C         -1.11900        2.36800        0.18100
C         -1.30000        3.70100        0.46200
C         -0.31600        4.63300        0.21700
C          0.87700        4.16500       -0.25700
C          1.06000        2.86400       -0.50700
C         -0.53200        6.14900        0.48200
Br        -2.94900        4.24500        1.27100
C         -2.21500        1.32300        0.36600
H          2.02800        2.56800       -0.90700
O          1.97600        4.97200       -0.49200
H          1.81000        5.89900       -0.22300
O          0.63100        6.94100        0.10800
C         -1.27800        8.27100       -0.28900
C         -1.68500        6.82200       -0.26800
C          0.94200        9.39000        0.08800
H         -2.65700        6.72700        0.21600
H         -1.51400        8.74000        0.67500
H         -1.78400        8.84700       -1.07000
H         -1.76800        6.43700       -1.29100
H          0.46400        8.12000       -1.56200
C          0.21500        8.18100       -0.49500
H         -0.63900        6.30300        1.56400
H         -2.51500        0.91900       -0.60900
H         -1.87100        0.50800        1.01100
H         -3.14000        1.68400        0.81800
O          0.40800       10.56500       -0.30700
O          1.92400        9.37700        0.81200
H          0.96500       11.23900        0.13700
