
 OpenBabel11042013043D

 24 24  0  0  1  0  0  0  0  0999 V2000
    1.1940    0.1650   -0.0260 O   0  0  0  0  0  0  0  0  0  0  0  0
   -0.0060    0.7780   -0.0050 C   0  0  0  0  0  0  0  0  0  0  0  0
   -1.0420    0.1270   -0.0300 O   0  0  0  0  0  0  0  0  0  0  0  0
    0.0050    2.2770    0.0440 C   0  0  2  0  0  0  0  0  0  0  0  0
    1.9970    0.7070   -0.0030 H   0  0  0  0  0  0  0  0  0  0  0  0
   -1.2070    2.8850    0.0320 C   0  0  0  0  0  0  0  0  0  0  0  0
   -1.3100    4.2350    0.0430 C   0  0  1  0  0  0  0  0  0  0  0  0
   -0.1840    4.9820    0.1060 C   0  0  1  0  0  0  0  0  0  0  0  0
    1.0290    4.3830    0.1150 C   0  0  1  0  0  0  0  0  0  0  0  0
    1.1200    3.0400    0.0720 C   0  0  0  0  0  0  0  0  0  0  0  0
   -0.2020    6.4080    0.1100 C   0  0  0  0  0  0  0  0  0  0  0  0
   -2.5900    4.8680   -0.0650 C   0  0  0  0  0  0  0  0  0  0  0  0
   -2.1170    2.2810   -0.0080 H   0  0  0  0  0  0  0  0  0  0  0  0
    2.1150    2.6170    0.0570 H   0  0  0  0  0  0  0  0  0  0  0  0
    2.1710    5.1680    0.1470 O   0  0  0  0  0  0  0  0  0  0  0  0
   -0.0090    7.5920    0.0770 C   0  0  0  0  0  0  0  0  0  0  0  0
    0.3470    8.8820    0.0090 N   0  0  0  0  0  0  0  0  0  0  0  0
   -0.6540    9.6080    0.1330 N   0  0  0  0  0  0  0  0  0  0  0  0
   -0.3310   10.9350    0.0410 C   0  0  0  0  0  0  0  0  0  0  0  0
    2.9950    4.7020   -0.0630 H   0  0  0  0  0  0  0  0  0  0  0  0
   -3.5980    5.4260   -0.2060 N   0  0  0  0  0  0  0  0  0  0  0  0
   -1.4490   11.6940    0.0360 O   0  0  0  0  0  0  0  0  0  0  0  0
    0.7670   11.4710   -0.0330 O   0  0  0  0  0  0  0  0  0  0  0  0
   -1.0990   12.6020   -0.0340 H   0  0  0  0  0  0  0  0  0  0  0  0
  1  5  1  0  0  0  0
  2  1  1  0  0  0  0
  3  2  2  0  0  0  0
  4  2  1  6  0  0  0
  4 10  5  0  0  0  0
  6  4  5  0  0  0  0
  6  7  5  0  0  0  0
  6 13  1  0  0  0  0
  7 12  1  6  0  0  0
  8  7  5  0  0  0  0
  8 11  1  6  0  0  0
  9  8  5  0  0  0  0
  9 15  1  6  0  0  0
 10  9  5  0  0  0  0
 10 14  1  0  0  0  0
 12 21  3  0  0  0  0
 15 20  1  0  0  0  0
 16 11  3  0  0  0  0
 17 16  1  0  0  0  0
 18 17  2  0  0  0  0
 19 18  1  0  0  0  0
 19 23  2  0  0  0  0
 22 19  1  0  0  0  0
 24 22  1  0  0  0  0
M  END
