24

O          1.19400        0.16500       -0.02600
C         -0.00600        0.77800       -0.00500
O         -1.04200        0.12700       -0.03000
C          0.00500        2.27700        0.04400
H          1.99700        0.70700       -0.00300
C         -1.20700        2.88500        0.03200
C         -1.31000        4.23500        0.04300
C         -0.18400        4.98200        0.10600
C          1.02900        4.38300        0.11500
C          1.12000        3.04000        0.07200
C         -0.20200        6.40800        0.11000
C         -2.59000        4.86800       -0.06500
H         -2.11700        2.28100       -0.00800
H          2.11500        2.61700        0.05700
O          2.17100        5.16800        0.14700
C         -0.00900        7.59200        0.07700
N          0.34700        8.88200        0.00900
N         -0.65400        9.60800        0.13300
C         -0.33100       10.93500        0.04100
H          2.99500        4.70200       -0.06300
N         -3.59800        5.42600       -0.20600
O         -1.44900       11.69400        0.03600
O          0.76700       11.47100       -0.03300
H         -1.09900       12.60200       -0.03400
