33

O          1.24500        0.00500       -0.11300
C          0.07500        0.67400       -0.12500
O         -0.98900        0.07800       -0.21500
C          0.16700        2.16500        0.00700
H          2.05500        0.51500        0.04400
C         -1.01100        2.81700        0.13000
C         -1.04500        4.15700        0.27300
C          0.09900        4.88800        0.29300
C          1.26900        4.23000        0.15500
C          1.31100        2.88700        0.01000
N          0.07600        6.25000        0.45400
H         -2.00500        4.65000        0.37600
H         -1.95600        2.27600        0.11500
H          2.28500        2.42500       -0.10600
Cl         2.79000        5.08900        0.15600
N         -0.65800        6.89300       -0.32600
N          0.04200        7.26100       -1.47500
N          0.42900        8.45200       -1.55700
C          0.43200        9.33000       -0.37500
O          1.10800       10.60300       -0.56400
C         -1.02500       11.16300        0.16700
C         -0.99300        9.66900        0.05500
C          0.58300       13.07300       -0.12900
H         -1.75200        9.33100       -0.65900
H         -1.51600       11.56700       -0.72700
H         -1.57800       11.51300        1.04400
H         -1.23000        9.20400        1.01900
H          0.81200       11.48200        1.24300
C          0.42900       11.57900        0.21900
H          0.96500        8.83400        0.44800
O         -0.58400       13.75700       -0.03300
O          1.61700       13.67400       -0.36800
H         -0.35200       14.69600       -0.18200
