
 OpenBabel11042013043D

 33 34  0  0  1  0  0  0  0  0999 V2000
    1.2450    0.0050   -0.1130 O   0  0  0  0  0  0  0  0  0  0  0  0
    0.0750    0.6740   -0.1250 C   0  0  0  0  0  0  0  0  0  0  0  0
   -0.9890    0.0780   -0.2150 O   0  0  0  0  0  0  0  0  0  0  0  0
    0.1670    2.1650    0.0070 C   0  0  2  0  0  0  0  0  0  0  0  0
    2.0550    0.5150    0.0440 H   0  0  0  0  0  0  0  0  0  0  0  0
   -1.0110    2.8170    0.1300 C   0  0  0  0  0  0  0  0  0  0  0  0
   -1.0450    4.1570    0.2730 C   0  0  0  0  0  0  0  0  0  0  0  0
    0.0990    4.8880    0.2930 C   0  0  2  0  0  0  0  0  0  0  0  0
    1.2690    4.2300    0.1550 C   0  0  1  0  0  0  0  0  0  0  0  0
    1.3110    2.8870    0.0100 C   0  0  0  0  0  0  0  0  0  0  0  0
    0.0760    6.2500    0.4540 N   0  0  0  0  0  0  0  0  0  0  0  0
   -2.0050    4.6500    0.3760 H   0  0  0  0  0  0  0  0  0  0  0  0
   -1.9560    2.2760    0.1150 H   0  0  0  0  0  0  0  0  0  0  0  0
    2.2850    2.4250   -0.1060 H   0  0  0  0  0  0  0  0  0  0  0  0
    2.7900    5.0890    0.1560 Cl  0  0  0  0  0  0  0  0  0  0  0  0
   -0.6580    6.8930   -0.3260 N   0  0  0  0  0  0  0  0  0  0  0  0
    0.0420    7.2610   -1.4750 N   0  0  0  0  0  0  0  0  0  0  0  0
    0.4290    8.4520   -1.5570 N   0  0  0  0  0  0  0  0  0  0  0  0
    0.4320    9.3300   -0.3750 C   0  0  1  0  0  0  0  0  0  0  0  0
    1.1080   10.6030   -0.5640 O   0  0  0  0  0  0  0  0  0  0  0  0
   -1.0250   11.1630    0.1670 C   0  0  0  0  0  0  0  0  0  0  0  0
   -0.9930    9.6690    0.0550 C   0  0  0  0  0  0  0  0  0  0  0  0
    0.5830   13.0730   -0.1290 C   0  0  0  0  0  0  0  0  0  0  0  0
   -1.7520    9.3310   -0.6590 H   0  0  0  0  0  0  0  0  0  0  0  0
   -1.5160   11.5670   -0.7270 H   0  0  0  0  0  0  0  0  0  0  0  0
   -1.5780   11.5130    1.0440 H   0  0  0  0  0  0  0  0  0  0  0  0
   -1.2300    9.2040    1.0190 H   0  0  0  0  0  0  0  0  0  0  0  0
    0.8120   11.4820    1.2430 H   0  0  0  0  0  0  0  0  0  0  0  0
    0.4290   11.5790    0.2190 C   0  0  2  0  0  0  0  0  0  0  0  0
    0.9650    8.8340    0.4480 H   0  0  0  0  0  0  0  0  0  0  0  0
   -0.5840   13.7570   -0.0330 O   0  0  0  0  0  0  0  0  0  0  0  0
    1.6170   13.6740   -0.3680 O   0  0  0  0  0  0  0  0  0  0  0  0
   -0.3520   14.6960   -0.1820 H   0  0  0  0  0  0  0  0  0  0  0  0
  1  5  1  0  0  0  0
  2  1  1  0  0  0  0
  3  2  2  0  0  0  0
  4  2  1  6  0  0  0
  4 10  5  0  0  0  0
  6  4  5  0  0  0  0
  6  7  5  0  0  0  0
  6 13  1  0  0  0  0
  7 12  1  0  0  0  0
  8  7  5  0  0  0  0
  8 11  1  1  0  0  0
  9  8  5  0  0  0  0
  9 15  1  6  0  0  0
 10  9  5  0  0  0  0
 10 14  1  0  0  0  0
 16 11  2  0  0  0  0
 17 16  1  0  0  0  0
 18 17  2  0  0  0  0
 19 18  1  0  0  0  0
 19 22  1  0  0  0  0
 19 30  1  1  0  0  0
 20 19  1  0  0  0  0
 21 29  1  0  0  0  0
 21 26  1  0  0  0  0
 22 21  1  0  0  0  0
 22 27  1  0  0  0  0
 23 29  1  0  0  0  0
 23 32  2  0  0  0  0
 24 22  1  0  0  0  0
 25 21  1  0  0  0  0
 29 20  1  0  0  0  0
 29 28  1  1  0  0  0
 31 23  1  0  0  0  0
 33 31  1  0  0  0  0
M  END
