
 OpenBabel11042013043D

 31 32  0  0  1  0  0  0  0  0999 V2000
    1.5590    0.4140    0.0360 O   0  0  0  0  0  0  0  0  0  0  0  0
    0.4160    1.0420    0.4090 C   0  0  0  0  0  0  0  0  0  0  0  0
   -0.5340    0.3980    0.8240 O   0  0  0  0  0  0  0  0  0  0  0  0
    0.4560    2.5350    0.2710 C   0  0  1  0  0  0  0  0  0  0  0  0
    2.2170    0.9520   -0.4330 H   0  0  0  0  0  0  0  0  0  0  0  0
   -0.6880    3.2260    0.0610 C   0  0  1  0  0  0  0  0  0  0  0  0
   -0.6600    4.5680   -0.0870 C   0  0  1  0  0  0  0  0  0  0  0  0
    0.5000    5.2900   -0.0160 C   0  0  1  0  0  0  0  0  0  0  0  0
    1.6380    4.5720    0.2030 C   0  0  1  0  0  0  0  0  0  0  0  0
    1.6090    3.2280    0.3500 C   0  0  0  0  0  0  0  0  0  0  0  0
    0.4270    6.8060   -0.2630 C   0  0  2  0  0  0  0  0  0  0  0  0
   -1.8920    5.1650   -0.3760 O   0  0  0  0  0  0  0  0  0  0  0  0
   -1.9110    2.5810   -0.0430 O   0  0  0  0  0  0  0  0  0  0  0  0
    2.5470    2.7100    0.5340 H   0  0  0  0  0  0  0  0  0  0  0  0
    3.2260    5.2740    0.2620 Cl  0  0  0  0  0  0  0  0  0  0  0  0
   -1.8110    5.8740   -1.0390 H   0  0  0  0  0  0  0  0  0  0  0  0
    1.5400    7.8230    0.0090 C   0  0  0  0  0  0  0  0  0  0  0  0
    0.8420    9.1400   -0.3350 C   0  0  1  0  0  0  0  0  0  0  0  0
   -0.5970    8.8710   -0.0640 N   0  0  0  0  0  0  0  0  0  0  0  0
   -0.6260    7.5300    0.4820 N   0  0  0  0  0  0  0  0  0  0  0  0
    1.3390   10.3670    0.4140 C   0  0  0  0  0  0  0  0  0  0  0  0
   -1.5440    7.0860    0.4180 H   0  0  0  0  0  0  0  0  0  0  0  0
   -0.9470    9.5810    0.5930 H   0  0  0  0  0  0  0  0  0  0  0  0
    2.4130    7.6920   -0.6350 H   0  0  0  0  0  0  0  0  0  0  0  0
    0.9540    9.3510   -1.4060 H   0  0  0  0  0  0  0  0  0  0  0  0
    1.8650    7.8040    1.0590 H   0  0  0  0  0  0  0  0  0  0  0  0
    0.2040    6.8740   -1.3420 H   0  0  0  0  0  0  0  0  0  0  0  0
   -2.6390    3.2350   -0.0870 H   0  0  0  0  0  0  0  0  0  0  0  0
    0.3810   11.3150    0.5600 O   0  0  0  0  0  0  0  0  0  0  0  0
    2.4840   10.5930    0.7730 O   0  0  0  0  0  0  0  0  0  0  0  0
    0.8530   12.0880    0.9340 H   0  0  0  0  0  0  0  0  0  0  0  0
  1  5  1  0  0  0  0
  2  1  1  0  0  0  0
  3  2  2  0  0  0  0
  4  2  1  1  0  0  0
  4 10  5  0  0  0  0
  6  4  5  0  0  0  0
  6  7  5  0  0  0  0
  6 13  1  6  0  0  0
  7 12  1  6  0  0  0
  8  7  5  0  0  0  0
  8 11  1  6  0  0  0
  9  8  5  0  0  0  0
  9 15  1  6  0  0  0
 10  9  5  0  0  0  0
 10 14  1  0  0  0  0
 11 20  1  0  0  0  0
 11 27  1  6  0  0  0
 12 16  1  0  0  0  0
 13 28  1  0  0  0  0
 17 11  1  0  0  0  0
 17 24  1  0  0  0  0
 17 26  1  0  0  0  0
 18 17  1  0  0  0  0
 18 25  1  6  0  0  0
 19 18  1  0  0  0  0
 20 19  1  0  0  0  0
 21 18  1  0  0  0  0
 21 30  2  0  0  0  0
 22 20  1  0  0  0  0
 23 19  1  0  0  0  0
 29 21  1  0  0  0  0
 31 29  1  0  0  0  0
M  END
