36

O          0.98300       -0.10400        0.25200
C         -0.26000        0.39300        0.07000
O         -1.24100       -0.33600        0.05900
C         -0.34000        1.88000       -0.07200
H          1.69000        0.54700        0.39100
C         -1.55400        2.44500        0.11600
C         -1.71200        3.77800        0.00100
C         -0.65700        4.56400       -0.29200
C          0.56800        4.00800       -0.47800
C          0.70900        2.66900       -0.39200
C         -0.81400        5.97700       -0.37500
H         -2.70000        4.21100        0.15200
H         -2.42100        1.83000        0.35600
H          1.69400        2.26800       -0.59900
C          2.32400        5.31800        0.33000
H          2.67100        4.52500        0.99900
H          1.67200        6.00700        0.87500
H          3.19500        5.88500       -0.01400
O          1.68000        4.77000       -0.82200
C         -0.74600        7.17600       -0.36300
C         -0.47400        8.56700       -0.24800
C         -1.47400        9.44700       -0.05100
C         -1.19400       10.75500        0.09800
C          0.07900       11.21700        0.04800
C          1.07100       10.31700       -0.14400
C          0.79800        9.00700       -0.29500
N          0.38900       12.55000        0.21900
H         -2.01500       11.44700        0.26700
H         -2.50700        9.11200       -0.00100
H          1.61900        8.31000       -0.44700
H          2.10400       10.65500       -0.17400
N         -0.39900       13.35000       -0.33100
C         -0.14400       14.65000        0.00400
O         -1.25800       15.40100       -0.12800
O          0.89400       15.17000        0.39000
H         -0.95600       16.28400        0.16100
