39

O          1.17000        0.86300        0.13900
C          0.01700        1.56100        0.21400
O         -1.06400        0.98900        0.25800
C          0.15400        3.04900        0.18600
H          1.97900        1.40700        0.09600
C         -0.98900        3.76200        0.15300
C         -0.95000        5.10500        0.04700
C          0.21900        5.79800       -0.03500
C          1.35800        5.06800        0.05900
C          1.32100        3.72100        0.15800
C          0.20400        7.30700       -0.34700
H         -1.91100        5.60700       -0.02100
H         -1.95600        3.26400        0.17700
F          2.49300        3.04400        0.19400
H          2.33100        5.55000       -0.00100
C          1.29100        8.32900        0.05900
C          0.64600        9.68300       -0.37500
N         -0.80500        9.36000       -0.39300
N         -0.95500        8.04700        0.17200
C          0.91000       10.96300        0.47600
H         -1.82400        7.62800       -0.15900
H         -1.32700       10.07900        0.12600
H          2.23400        8.14900       -0.46800
H          0.93200        9.88100       -1.41600
H          1.48300        8.30200        1.13900
H          0.15300        7.32300       -1.44800
C          2.04000       11.89200        0.04600
N          1.31400       13.08400       -0.36200
N         -0.01500       12.98600       -0.09900
N         -0.27600       11.85100        0.35600
C          1.84600       14.44000       -0.17300
H          2.71100       12.09900        0.88700
H          2.63000       11.49500       -0.78400
H          1.01200       10.69300        1.53200
C          2.10800       15.61000       -0.05600
C          2.26200       17.03100        0.04400
O          1.09300       17.71000        0.05500
O          3.33800       17.59700        0.10800
H          1.35300       18.65200        0.10300
