
 OpenBabel11042013043D

 36 37  0  0  1  0  0  0  0  0999 V2000
    0.2910    0.0840    0.4860 O   0  0  0  0  0  0  0  0  0  0  0  0
   -0.7970    0.7870    0.0910 C   0  0  0  0  0  0  0  0  0  0  0  0
   -1.8690    0.2210   -0.0640 O   0  0  0  0  0  0  0  0  0  0  0  0
   -0.5660    2.2710   -0.0200 C   0  0  1  0  0  0  0  0  0  0  0  0
    1.1140    0.5760    0.3160 H   0  0  0  0  0  0  0  0  0  0  0  0
   -1.6240    3.0840    0.2380 C   0  0  2  0  0  0  0  0  0  0  0  0
   -1.4280    4.4130    0.2630 C   0  0  0  0  0  0  0  0  0  0  0  0
   -0.2210    4.9690    0.0450 C   0  0  2  0  0  0  0  0  0  0  0  0
    0.8000    4.1530   -0.3030 C   0  0  0  0  0  0  0  0  0  0  0  0
    0.6460    2.8050   -0.3300 C   0  0  1  0  0  0  0  0  0  0  0  0
   -0.1110    6.4490    0.3340 C   0  0  1  0  0  0  0  0  0  0  0  0
   -2.2700    5.0490    0.5410 H   0  0  0  0  0  0  0  0  0  0  0  0
   -3.8050    2.5480   -0.4280 C   0  0  0  0  0  0  0  0  0  0  0  0
    2.9160    2.1960    0.0970 C   0  0  0  0  0  0  0  0  0  0  0  0
    1.7710    4.5790   -0.5360 H   0  0  0  0  0  0  0  0  0  0  0  0
    3.6040    1.3770   -0.1370 H   0  0  0  0  0  0  0  0  0  0  0  0
    2.7150    2.1710    1.1730 H   0  0  0  0  0  0  0  0  0  0  0  0
    3.3940    3.1340   -0.1930 H   0  0  0  0  0  0  0  0  0  0  0  0
    1.7100    1.9580   -0.6350 O   0  0  0  0  0  0  0  0  0  0  0  0
   -4.0080    3.5410   -0.8420 H   0  0  0  0  0  0  0  0  0  0  0  0
   -3.4630    1.8730   -1.2190 H   0  0  0  0  0  0  0  0  0  0  0  0
   -4.7390    2.1520   -0.0180 H   0  0  0  0  0  0  0  0  0  0  0  0
   -2.8640    2.6160    0.6440 O   0  0  0  0  0  0  0  0  0  0  0  0
    1.2110    7.1770    0.3480 C   0  0  0  0  0  0  0  0  0  0  0  0
    0.7050    8.4860    0.0660 N   0  0  0  0  0  0  0  0  0  0  0  0
   -0.4760    8.4460   -0.6210 N   0  0  0  0  0  0  0  0  0  0  0  0
   -0.9160    7.2670   -0.6010 N   0  0  0  0  0  0  0  0  0  0  0  0
    1.4400    9.6130    0.2040 N   0  0  0  0  0  0  0  0  0  0  0  0
    1.8830    6.9120   -0.4740 H   0  0  0  0  0  0  0  0  0  0  0  0
    1.7290    7.1310    1.3080 H   0  0  0  0  0  0  0  0  0  0  0  0
   -0.5500    6.5950    1.3360 H   0  0  0  0  0  0  0  0  0  0  0  0
    1.1420   10.4170   -0.7050 N   0  0  0  0  0  0  0  0  0  0  0  0
    0.7730   11.6240   -0.1980 C   0  0  0  0  0  0  0  0  0  0  0  0
   -0.5530   11.8280   -0.3720 O   0  0  0  0  0  0  0  0  0  0  0  0
    1.4630   12.4790    0.3350 O   0  0  0  0  0  0  0  0  0  0  0  0
   -0.7060   12.7030    0.0240 H   0  0  0  0  0  0  0  0  0  0  0  0
  1  5  1  0  0  0  0
  2  1  1  0  0  0  0
  3  2  2  0  0  0  0
  4  2  1  1  0  0  0
  4 10  5  0  0  0  0
  6  4  5  0  0  0  0
  6  7  5  0  0  0  0
  6 23  1  1  0  0  0
  7 12  1  0  0  0  0
  8  7  5  1  0  0  0
  8 11  1  0  0  0  0
  9  8  5  0  0  0  0
  9 15  1  0  0  0  0
 10  9  5  0  0  0  0
 10 19  1  1  0  0  0
 11 27  1  0  0  0  0
 11 31  1  1  0  0  0
 13 20  1  0  0  0  0
 13 21  1  0  0  0  0
 13 22  1  0  0  0  0
 13 23  1  0  0  0  0
 14 16  1  0  0  0  0
 14 17  1  0  0  0  0
 14 18  1  0  0  0  0
 14 19  1  0  0  0  0
 24 11  1  0  0  0  0
 24 29  1  0  0  0  0
 24 30  1  0  0  0  0
 25 24  1  0  0  0  0
 26 25  1  0  0  0  0
 27 26  2  0  0  0  0
 28 25  1  0  0  0  0
 32 28  2  0  0  0  0
 33 32  1  0  0  0  0
 33 35  2  0  0  0  0
 34 33  1  0  0  0  0
 36 34  1  0  0  0  0
M  END
