55

O          1.63800       -1.51900        0.03800
C          0.39200       -1.00600        0.01000
O         -0.58900       -1.72700        0.13300
C          0.29900        0.48200       -0.12700
H          2.37000       -0.88700       -0.01400
C         -0.94000        0.99700       -0.02900
C         -1.13300        2.32700       -0.04700
C         -0.09200        3.18300       -0.17100
C          1.14200        2.64800       -0.34400
C          1.34700        1.32400       -0.30600
C         -0.28400        4.63900       -0.06000
H         -2.15200        2.68700        0.07600
H         -1.81100        0.35700        0.09400
H          2.37200        0.98700       -0.41700
H          2.01500        3.28100       -0.48900
C         -1.46000        5.24500       -0.35600
C         -1.61200        6.57200       -0.22200
C         -0.58300        7.33800        0.19200
C          0.57900        6.74200        0.52500
C          0.72300        5.41900        0.40100
C         -0.66700        8.82600        0.21900
H         -2.57200        7.01900       -0.47500
H         -2.31700        4.68900       -0.72100
H          1.68800        5.01000        0.68400
H          1.43300        7.31600        0.87800
C          0.55500        9.47700       -0.39300
N         -0.03100       10.72300       -0.81900
N         -1.34400       10.45000       -1.19100
N         -1.72300        9.37200       -0.66300
C          0.09200       11.76000        0.17400
H          1.39000        9.62200        0.30100
H          0.91700        8.95400       -1.28600
H         -0.85400        9.17400        1.24500
C          1.34500       12.60500        0.08300
C          0.86500       13.95900        0.63700
N         -0.54700       13.71400        1.02800
N         -0.96300       12.74500        0.06300
C          0.95300       15.07300       -0.42300
H         -1.85800       12.29300        0.26000
H         -1.07500       14.59000        0.92100
H          1.71900       12.67300       -0.94700
H          1.43100       14.20700        1.54200
H          2.14500       12.17000        0.69400
H          0.02900       11.29800        1.17000
C          2.07300       16.04700       -0.17600
N          1.35600       17.29000       -0.20600
N          0.01200       17.13800       -0.26800
N         -0.26700       15.92400       -0.36600
C          1.92600       18.52800       -0.14900
H          2.56100       15.94300        0.79900
H          2.83800       16.02800       -0.95700
H          1.01100       14.66400       -1.43800
O          1.03000       19.53300       -0.18800
O          3.11900       18.77800       -0.07600
H          1.57800       20.33900       -0.16000
