30

O          1.35100        0.44400        0.24200
C          0.22800        1.19600        0.26000
O         -0.86100        0.63900        0.26700
C          0.42800        2.69000        0.19100
H          2.20000        0.90500        0.29200
C         -0.66100        3.49100        0.37100
C         -0.53900        4.82400        0.23500
C          0.64000        5.39200       -0.05900
C          1.72900        4.61500       -0.20600
C          1.62200        3.27400       -0.08700
C          0.69200        6.80300       -0.15800
H         -1.41600        5.45100        0.38000
C         -2.80800        2.96000       -0.34400
H          2.53500        2.70900       -0.23600
H          2.69800        5.06200       -0.42200
C          0.70200        8.00300       -0.13300
C          0.82000        9.41000        0.00400
C         -0.19500       10.28100        0.03800
N          0.08600       11.60500        0.22000
H         -1.23400        9.97500       -0.06600
H          1.82900        9.79000        0.12100
H         -3.26500        3.94600       -0.47400
H         -2.32100        2.64400       -1.27300
H         -3.59400        2.24000       -0.10300
O         -1.89400        2.98900        0.75100
N         -0.80100       12.42100       -0.09200
C         -0.31700       13.70500        0.01400
O         -1.31500       14.61300       -0.03900
O          0.83800       14.09800        0.12500
H         -0.81900       15.45200        0.04100
