
 OpenBabel11042013043D

 30 30  0  0  1  0  0  0  0  0999 V2000
    1.3510    0.4440    0.2420 O   0  0  0  0  0  0  0  0  0  0  0  0
    0.2280    1.1960    0.2600 C   0  0  0  0  0  0  0  0  0  0  0  0
   -0.8610    0.6390    0.2670 O   0  0  0  0  0  0  0  0  0  0  0  0
    0.4280    2.6900    0.1910 C   0  0  2  0  0  0  0  0  0  0  0  0
    2.2000    0.9050    0.2920 H   0  0  0  0  0  0  0  0  0  0  0  0
   -0.6610    3.4910    0.3710 C   0  0  2  0  0  0  0  0  0  0  0  0
   -0.5390    4.8240    0.2350 C   0  0  0  0  0  0  0  0  0  0  0  0
    0.6400    5.3920   -0.0590 C   0  0  2  0  0  0  0  0  0  0  0  0
    1.7290    4.6150   -0.2060 C   0  0  0  0  0  0  0  0  0  0  0  0
    1.6220    3.2740   -0.0870 C   0  0  0  0  0  0  0  0  0  0  0  0
    0.6920    6.8030   -0.1580 C   0  0  0  0  0  0  0  0  0  0  0  0
   -1.4160    5.4510    0.3800 H   0  0  0  0  0  0  0  0  0  0  0  0
   -2.8080    2.9600   -0.3440 C   0  0  0  0  0  0  0  0  0  0  0  0
    2.5350    2.7090   -0.2360 H   0  0  0  0  0  0  0  0  0  0  0  0
    2.6980    5.0620   -0.4220 H   0  0  0  0  0  0  0  0  0  0  0  0
    0.7020    8.0030   -0.1330 C   0  0  0  0  0  0  0  0  0  0  0  0
    0.8200    9.4100    0.0040 C   0  0  0  0  0  0  0  0  0  0  0  0
   -0.1950   10.2810    0.0380 C   0  0  0  0  0  0  0  0  0  0  0  0
    0.0860   11.6050    0.2200 N   0  0  0  0  0  0  0  0  0  0  0  0
   -1.2340    9.9750   -0.0660 H   0  0  0  0  0  0  0  0  0  0  0  0
    1.8290    9.7900    0.1210 H   0  0  0  0  0  0  0  0  0  0  0  0
   -3.2650    3.9460   -0.4740 H   0  0  0  0  0  0  0  0  0  0  0  0
   -2.3210    2.6440   -1.2730 H   0  0  0  0  0  0  0  0  0  0  0  0
   -3.5940    2.2400   -0.1030 H   0  0  0  0  0  0  0  0  0  0  0  0
   -1.8940    2.9890    0.7510 O   0  0  0  0  0  0  0  0  0  0  0  0
   -0.8010   12.4210   -0.0920 N   0  0  0  0  0  0  0  0  0  0  0  0
   -0.3170   13.7050    0.0140 C   0  0  0  0  0  0  0  0  0  0  0  0
   -1.3150   14.6130   -0.0390 O   0  0  0  0  0  0  0  0  0  0  0  0
    0.8380   14.0980    0.1250 O   0  0  0  0  0  0  0  0  0  0  0  0
   -0.8190   15.4520    0.0410 H   0  0  0  0  0  0  0  0  0  0  0  0
  1  5  1  0  0  0  0
  2  1  1  0  0  0  0
  3  2  2  0  0  0  0
  4  2  1  6  0  0  0
  4 10  5  0  0  0  0
  6  4  5  0  0  0  0
  6  7  5  0  0  0  0
  6 25  1  1  0  0  0
  7 12  1  0  0  0  0
  8  7  5  0  0  0  0
  8 11  1  1  0  0  0
  9  8  5  0  0  0  0
  9 15  1  0  0  0  0
 10  9  5  0  0  0  0
 10 14  1  0  0  0  0
 13 22  1  0  0  0  0
 13 23  1  0  0  0  0
 13 24  1  0  0  0  0
 13 25  1  0  0  0  0
 16 11  3  0  0  0  0
 17 16  1  0  0  0  0
 17 21  1  0  0  0  0
 18 17  2  0  0  0  0
 18 20  1  0  0  0  0
 19 18  1  0  0  0  0
 26 19  2  0  0  0  0
 27 26  1  0  0  0  0
 27 29  2  0  0  0  0
 28 27  1  0  0  0  0
 30 28  1  0  0  0  0
M  END
