43

O          1.69300       -0.17300       -0.06400
C          0.45700        0.35600       -0.18600
O         -0.50600       -0.35700       -0.43300
C          0.35700        1.84300       -0.03200
H          2.40200        0.42500        0.21300
C         -0.89200        2.35400       -0.02400
C         -1.11600        3.68300        0.05300
C         -0.03200        4.52600        0.12000
C          1.23400        4.02100        0.16300
C          1.40400        2.68300        0.07900
C         -0.33500        5.99800        0.03700
C         -2.54900        4.26000        0.06700
H         -1.73900        1.67700       -0.10100
H          2.42200        2.31500        0.07900
C          2.48100        4.86500        0.32300
C          0.54800        7.05100       -0.56000
N         -0.25800        8.13900       -0.07700
N         -0.74600        7.86300        1.17500
N         -0.69800        6.61300        1.33500
C         -0.11600        9.48000       -0.53600
H          1.53200        7.17800       -0.11000
H          0.60100        7.02300       -1.65000
H         -1.21700        6.08900       -0.61000
H          2.70100        5.41800       -0.59500
H          3.37200        4.26100        0.53700
H          2.38300        5.55600        1.16800
C          1.10700       10.15700        0.00500
N          0.52000       11.36000        0.52000
N         -0.84200       11.29400        0.57700
N         -1.24200       10.28000       -0.03500
C          1.07100       12.58200        0.24300
H          1.85600       10.34300       -0.77100
H          1.58600        9.59800        0.82300
H         -0.12500        9.47700       -1.63300
C         -3.77500        3.36100        0.11400
H         -4.64300        3.96400        0.41000
H         -3.67400        2.54700        0.83300
H         -3.99000        2.95600       -0.88000
H         -2.63400        4.92100        0.94000
H         -2.69400        4.87500       -0.83100
O          0.19800       13.60200        0.37500
O          2.20000       12.79500       -0.19100
H          0.65300       14.35300       -0.04300
