40

O          1.57600       -0.19600       -0.26700
C          0.32800        0.32200       -0.30300
O         -0.62300       -0.43500       -0.42500
C          0.21400        1.82800       -0.16400
H          2.32100        0.39800       -0.10600
C         -1.01700        2.40300       -0.03300
C         -1.09300        3.74400        0.13000
C         -0.00700        4.55400        0.17800
C          1.19700        3.97100        0.00900
C          1.30500        2.63700       -0.16000
C         -0.17700        6.04200        0.47900
F         -2.32000        4.29400        0.29400
C         -2.32000        1.62600       -0.03100
H          2.31300        2.25900       -0.27600
H          2.11000        4.57200        0.03200
C          0.86400        7.09600        0.10500
N         -0.00800        8.27000        0.10100
N         -1.27200        7.85500       -0.28600
N         -1.37300        6.61100       -0.18200
C          0.35900        9.56600       -0.42700
H          1.66400        7.20400        0.84200
H          1.27300        6.95500       -0.90100
H         -0.34600        6.11200        1.56700
C          1.56000       10.35600        0.07000
C          1.20200       11.75700       -0.46300
N         -0.28700       11.77700       -0.52900
N         -0.69300       10.50000       -0.01800
C          1.71500       12.95800        0.32700
H         -1.58200       10.15800       -0.38500
H         -0.62700       12.54900        0.06400
H          2.50100        9.99100       -0.35400
H          1.57000       11.87300       -1.49100
H          1.65400       10.34600        1.16400
H          0.39900        9.46700       -1.52200
H         -3.19500        2.26300        0.13800
H         -2.48500        1.13600       -0.99700
H         -2.33200        0.88400        0.77400
O          0.78800       13.94100        0.46500
O          2.86300       13.13400        0.71400
H          1.27200       14.71100        0.83400
