22

O          1.53300        0.34600        0.04700
C          0.34100        0.94900        0.18900
O         -0.66100        0.24900        0.18300
C          0.26800        2.45400        0.27500
H          2.35800        0.86800        0.04600
C         -0.96700        3.03100        0.28900
C         -1.12600        4.37300        0.26800
C         -0.06100        5.18100        0.12500
C          1.17700        4.62900        0.05400
C          1.34500        3.28100        0.20300
C         -0.28400        6.58000       -0.01800
H         -2.12700        4.80800        0.25300
C         -2.20300        2.34900        0.14500
Cl         2.99300        2.67500        0.18000
C          2.26600        5.43200       -0.34800
N         -3.28100        2.01500       -0.13400
C         -0.35900        7.78100       -0.07600
C         -0.28700        9.21100       -0.05300
N          3.15200        6.01700       -0.81500
O         -1.48000        9.83200       -0.03800
O          0.77200        9.80900        0.00000
H         -1.26300       10.78600        0.01400
