
 OpenBabel11042013043D

 29 29  0  0  1  0  0  0  0  0999 V2000
    1.2310    0.2160    0.0130 O   0  0  0  0  0  0  0  0  0  0  0  0
    0.1430    1.0090   -0.0010 C   0  0  0  0  0  0  0  0  0  0  0  0
   -0.9800    0.5030    0.0020 O   0  0  0  0  0  0  0  0  0  0  0  0
    0.3850    2.5010   -0.0250 C   0  0  1  0  0  0  0  0  0  0  0  0
    2.0840    0.6870    0.0080 H   0  0  0  0  0  0  0  0  0  0  0  0
   -0.7660    3.2050   -0.0290 C   0  0  0  0  0  0  0  0  0  0  0  0
   -0.8060    4.5540   -0.0790 C   0  0  2  0  0  0  0  0  0  0  0  0
    0.3730    5.2420   -0.1330 C   0  0  1  0  0  0  0  0  0  0  0  0
    1.5510    4.5540   -0.0420 C   0  0  2  0  0  0  0  0  0  0  0  0
    1.5500    3.1900   -0.0180 C   0  0  1  0  0  0  0  0  0  0  0  0
    0.4080    6.6120   -0.3400 N   0  0  0  0  0  0  0  0  0  0  0  0
   -2.1480    5.2920   -0.0490 C   0  0  0  0  0  0  0  0  0  0  0  0
   -1.7040    2.6550    0.0000 H   0  0  0  0  0  0  0  0  0  0  0  0
    3.0890    2.3540    0.0260 Cl  0  0  0  0  0  0  0  0  0  0  0  0
    2.8600    5.3230    0.0820 C   0  0  0  0  0  0  0  0  0  0  0  0
   -3.4190    4.4520    0.0850 C   0  0  0  0  0  0  0  0  0  0  0  0
   -3.4680    3.9860    1.0760 H   0  0  0  0  0  0  0  0  0  0  0  0
   -3.4790    3.6690   -0.6770 H   0  0  0  0  0  0  0  0  0  0  0  0
   -4.3030    5.0860   -0.0270 H   0  0  0  0  0  0  0  0  0  0  0  0
   -2.1480    5.9550    0.8250 H   0  0  0  0  0  0  0  0  0  0  0  0
   -2.2420    5.9180   -0.9440 H   0  0  0  0  0  0  0  0  0  0  0  0
    2.7660    6.3990   -0.0880 H   0  0  0  0  0  0  0  0  0  0  0  0
    3.6240    4.9700   -0.6170 H   0  0  0  0  0  0  0  0  0  0  0  0
    3.2330    5.2060    1.1090 H   0  0  0  0  0  0  0  0  0  0  0  0
   -0.1020    7.3490    0.5290 N   0  0  0  0  0  0  0  0  0  0  0  0
   -0.0150    8.6640    0.1480 C   0  0  0  0  0  0  0  0  0  0  0  0
   -1.2240    9.2690    0.1700 O   0  0  0  0  0  0  0  0  0  0  0  0
    0.9760    9.3030   -0.1670 O   0  0  0  0  0  0  0  0  0  0  0  0
   -1.0110   10.1840   -0.1050 H   0  0  0  0  0  0  0  0  0  0  0  0
  1  5  1  0  0  0  0
  2  1  1  0  0  0  0
  3  2  2  0  0  0  0
  4  2  1  1  0  0  0
  4 10  5  0  0  0  0
  6  4  5  0  0  0  0
  6  7  5  0  0  0  0
  6 13  1  0  0  0  0
  7 12  1  1  0  0  0
  8  7  5  0  0  0  0
  8 11  1  6  0  0  0
  9  8  5  0  0  0  0
  9 15  1  1  0  0  0
 10  9  5  0  0  0  0
 10 14  1  1  0  0  0
 12 20  1  0  0  0  0
 12 21  1  0  0  0  0
 15 22  1  0  0  0  0
 15 23  1  0  0  0  0
 15 24  1  0  0  0  0
 16 17  1  0  0  0  0
 16 18  1  0  0  0  0
 16 19  1  0  0  0  0
 16 12  1  0  0  0  0
 25 11  2  0  0  0  0
 26 25  1  0  0  0  0
 26 28  2  0  0  0  0
 27 26  1  0  0  0  0
 29 27  1  0  0  0  0
M  END
