29

O          1.23100        0.21600        0.01300
C          0.14300        1.00900       -0.00100
O         -0.98000        0.50300        0.00200
C          0.38500        2.50100       -0.02500
H          2.08400        0.68700        0.00800
C         -0.76600        3.20500       -0.02900
C         -0.80600        4.55400       -0.07900
C          0.37300        5.24200       -0.13300
C          1.55100        4.55400       -0.04200
C          1.55000        3.19000       -0.01800
N          0.40800        6.61200       -0.34000
C         -2.14800        5.29200       -0.04900
H         -1.70400        2.65500        0.00000
Cl         3.08900        2.35400        0.02600
C          2.86000        5.32300        0.08200
C         -3.41900        4.45200        0.08500
H         -3.46800        3.98600        1.07600
H         -3.47900        3.66900       -0.67700
H         -4.30300        5.08600       -0.02700
H         -2.14800        5.95500        0.82500
H         -2.24200        5.91800       -0.94400
H          2.76600        6.39900       -0.08800
H          3.62400        4.97000       -0.61700
H          3.23300        5.20600        1.10900
N         -0.10200        7.34900        0.52900
C         -0.01500        8.66400        0.14800
O         -1.22400        9.26900        0.17000
O          0.97600        9.30300       -0.16700
H         -1.01100       10.18400       -0.10500
