52

O          1.40000       -0.70800        0.07900
C          0.18400       -0.13200        0.18600
O         -0.83100       -0.81500        0.22600
C          0.16800        1.36600        0.18900
H          2.15700       -0.11200       -0.03800
C         -1.05000        1.94600        0.10200
C         -1.16800        3.28300       -0.00500
C         -0.05900        4.06200       -0.05200
C          1.14900        3.48400        0.11600
C          1.26500        2.15500        0.23300
C         -0.14400        5.51800       -0.42600
H         -2.16300        3.70900       -0.12700
H         -1.95600        1.34200        0.07700
H          2.27200        1.76900        0.32400
H          2.05100        4.09600        0.09800
O          0.97800        6.31500        0.01600
C         -0.80800        7.78000       -0.25200
C         -1.36000        6.37200       -0.09600
C          1.47800        8.69800       -0.16100
H         -2.19200        6.18600       -0.78300
H         -1.31800        8.35900       -1.02800
H         -0.94300        8.31700        0.69700
H         -1.72000        6.21600        0.92700
H          0.80900        7.45800       -1.67700
C          0.67400        7.57200       -0.59500
H         -0.07000        5.48800       -1.52500
C          1.66600        9.84800        0.11800
C          1.20700       11.15000        0.55900
O          1.74300       12.30800       -0.11300
C         -0.54600       12.73400        0.18100
C         -0.29900       11.25400        0.28900
C          1.06800       14.75500       -0.04700
H         -0.57400       10.78900       -0.66900
H         -0.96800       12.96600       -0.80500
H         -1.24600       13.08400        0.94600
H         -0.89600       10.77100        1.06700
H          1.02900       13.36900        1.46300
C          0.84600       13.32600        0.37700
H          1.41700       11.25100        1.63100
C          0.00200       15.58100       -0.17200
C          0.16100       16.90600       -0.29100
C          1.40000       17.43500       -0.29900
C          2.47700       16.61900       -0.26400
C          2.30700       15.28400       -0.14900
C          1.58800       18.90600       -0.26700
H         -0.72500       17.53200       -0.32200
H         -1.01700       15.20900       -0.10300
H          3.18400       14.64000       -0.06800
H          3.48300       17.03000       -0.27700
O          0.42700       19.58000       -0.12900
O          2.65100       19.50000       -0.28100
H          0.70200       20.51500       -0.04400
