35

O          0.21000        0.59900       -0.45700
C         -0.85900        1.38500       -0.21200
O         -1.95600        0.89700        0.02700
C         -0.59200        2.86500       -0.20600
H          0.99400        1.10900       -0.74000
C         -1.64300        3.62500        0.15400
C         -1.53500        4.96300        0.26200
C         -0.36600        5.61100       -0.02800
C          0.67500        4.82900       -0.41700
C          0.58900        3.47400       -0.47300
C         -0.22800        7.12700        0.20000
Cl        -2.95600        5.77400        0.86800
H         -2.59500        3.15200        0.40000
C          2.68400        2.72900        0.26300
H          1.63200        5.29000       -0.65100
C          0.95500        8.02300       -0.23600
C          0.43500        9.38100        0.26100
N         -1.02700        9.30500        0.06400
N         -1.30500        7.94900       -0.38100
C          0.94300       10.65900       -0.24500
H         -2.20800        7.62900       -0.01500
H         -1.32100        9.98300       -0.64600
H          1.89300        7.74400        0.25600
H          0.60700        9.40500        1.34800
H          1.11400        8.00500       -1.32300
H         -0.27500        7.20800        1.30000
C          1.11900       11.84700       -0.38300
C          1.16400       13.29000       -0.33100
H          2.84500        1.69700        0.59400
H          3.62200        3.11700       -0.14100
H          2.38300        3.32300        1.13300
O          1.70700        2.71200       -0.78900
O         -0.04800       13.86600       -0.26300
O          2.20000       13.93300       -0.26900
H          0.13700       14.82000       -0.14000
