
 OpenBabel11042013043D

 34 35  0  0  1  0  0  0  0  0999 V2000
    1.0350   -0.1880    0.0000 O   0  0  0  0  0  0  0  0  0  0  0  0
   -0.1090    0.5260    0.0000 C   0  0  0  0  0  0  0  0  0  0  0  0
   -1.2000   -0.0270   -0.0000 O   0  0  0  0  0  0  0  0  0  0  0  0
    0.0500    2.0090   -0.0000 C   0  0  1  0  0  0  0  0  0  0  0  0
    1.8720    0.3030   -0.0000 H   0  0  0  0  0  0  0  0  0  0  0  0
   -1.0800    2.7550   -0.0000 C   0  0  0  0  0  0  0  0  0  0  0  0
   -1.0170    4.1020   -0.0000 C   0  0  0  0  0  0  0  0  0  0  0  0
    0.1850    4.7180    0.0000 C   0  0  1  0  0  0  0  0  0  0  0  0
    1.3030    3.9630    0.0000 C   0  0  1  0  0  0  0  0  0  0  0  0
    1.2460    2.6300   -0.0000 C   0  0  0  0  0  0  0  0  0  0  0  0
    0.3840    6.1440    0.0000 C   0  0  0  0  0  0  0  0  0  0  0  0
   -1.9470    4.6690   -0.0000 H   0  0  0  0  0  0  0  0  0  0  0  0
   -2.0630    2.2870   -0.0000 H   0  0  0  0  0  0  0  0  0  0  0  0
    2.2060    2.1360    0.0000 H   0  0  0  0  0  0  0  0  0  0  0  0
    2.5310    4.5380   -0.0000 F   0  0  0  0  0  0  0  0  0  0  0  0
   -0.5230    7.1250   -0.0000 C   0  0  0  0  0  0  0  0  0  0  0  0
   -0.1570    8.5300   -0.0000 C   0  0  1  0  0  0  0  0  0  0  0  0
   -1.5850    6.8930   -0.0000 H   0  0  0  0  0  0  0  0  0  0  0  0
    1.4340    6.4210   -0.0000 H   0  0  0  0  0  0  0  0  0  0  0  0
   -1.1560    9.4320   -0.0000 C   0  0  0  0  0  0  0  0  0  0  0  0
   -0.8840   10.7420   -0.0000 C   0  0  0  0  0  0  0  0  0  0  0  0
    0.3910   11.2060   -0.0000 C   0  0  1  0  0  0  0  0  0  0  0  0
    1.3870   10.2990   -0.0000 C   0  0  0  0  0  0  0  0  0  0  0  0
    1.1210    8.9810   -0.0000 C   0  0  0  0  0  0  0  0  0  0  0  0
    0.7000   12.5500    0.0000 N   0  0  0  0  0  0  0  0  0  0  0  0
   -1.7280   11.4260    0.0000 H   0  0  0  0  0  0  0  0  0  0  0  0
   -2.1990    9.1210    0.0000 H   0  0  0  0  0  0  0  0  0  0  0  0
    1.9790    8.3170   -0.0000 H   0  0  0  0  0  0  0  0  0  0  0  0
    2.4260   10.6210   -0.0000 H   0  0  0  0  0  0  0  0  0  0  0  0
   -0.3030   13.2870   -0.0000 N   0  0  0  0  0  0  0  0  0  0  0  0
   -0.0420   14.6190    0.0000 C   0  0  0  0  0  0  0  0  0  0  0  0
   -1.2030   15.3000    0.0000 O   0  0  0  0  0  0  0  0  0  0  0  0
    1.0230   15.2140    0.0000 O   0  0  0  0  0  0  0  0  0  0  0  0
   -0.9020   16.2350   -0.0000 H   0  0  0  0  0  0  0  0  0  0  0  0
  1  5  1  0  0  0  0
  2  1  1  0  0  0  0
  3  2  2  0  0  0  0
  4  2  1  1  0  0  0
  4 10  5  0  0  0  0
  6  4  5  0  0  0  0
  6  7  5  0  0  0  0
  6 13  1  0  0  0  0
  7 12  1  0  0  0  0
  8  7  5  0  0  0  0
  8 11  1  6  0  0  0
  9  8  5  0  0  0  0
  9 15  1  6  0  0  0
 10  9  5  0  0  0  0
 10 14  1  0  0  0  0
 11 19  1  0  0  0  0
 16 11  2  0  0  0  0
 16 18  1  0  0  0  0
 17 16  1  1  0  0  0
 17 24  5  0  0  0  0
 20 17  5  0  0  0  0
 20 21  5  0  0  0  0
 20 27  1  0  0  0  0
 21 26  1  0  0  0  0
 22 21  5  0  0  0  0
 22 25  1  6  0  0  0
 23 22  5  0  0  0  0
 23 29  1  0  0  0  0
 24 23  5  0  0  0  0
 24 28  1  0  0  0  0
 30 25  2  0  0  0  0
 31 30  1  0  0  0  0
 31 33  2  0  0  0  0
 32 31  1  0  0  0  0
 34 32  1  0  0  0  0
M  END
