34

O          1.03500       -0.18800        0.00000
C         -0.10900        0.52600        0.00000
O         -1.20000       -0.02700       -0.00000
C          0.05000        2.00900       -0.00000
H          1.87200        0.30300       -0.00000
C         -1.08000        2.75500       -0.00000
C         -1.01700        4.10200       -0.00000
C          0.18500        4.71800        0.00000
C          1.30300        3.96300        0.00000
C          1.24600        2.63000       -0.00000
C          0.38400        6.14400        0.00000
H         -1.94700        4.66900       -0.00000
H         -2.06300        2.28700       -0.00000
H          2.20600        2.13600        0.00000
F          2.53100        4.53800       -0.00000
C         -0.52300        7.12500       -0.00000
C         -0.15700        8.53000       -0.00000
H         -1.58500        6.89300       -0.00000
H          1.43400        6.42100       -0.00000
C         -1.15600        9.43200       -0.00000
C         -0.88400       10.74200       -0.00000
C          0.39100       11.20600       -0.00000
C          1.38700       10.29900       -0.00000
C          1.12100        8.98100       -0.00000
N          0.70000       12.55000        0.00000
H         -1.72800       11.42600        0.00000
H         -2.19900        9.12100        0.00000
H          1.97900        8.31700       -0.00000
H          2.42600       10.62100       -0.00000
N         -0.30300       13.28700       -0.00000
C         -0.04200       14.61900        0.00000
O         -1.20300       15.30000        0.00000
O          1.02300       15.21400        0.00000
H         -0.90200       16.23500       -0.00000
