
 OpenBabel11042013033D

 41 43  0  0  1  0  0  0  0  0999 V2000
    1.4580   -0.3140    0.0890 O   0  0  0  0  0  0  0  0  0  0  0  0
    0.2590    0.2960    0.2200 C   0  0  0  0  0  0  0  0  0  0  0  0
   -0.7310   -0.3620    0.4990 O   0  0  0  0  0  0  0  0  0  0  0  0
    0.2520    1.7870    0.0050 C   0  0  1  0  0  0  0  0  0  0  0  0
    2.1930    0.2160   -0.2540 H   0  0  0  0  0  0  0  0  0  0  0  0
   -0.9350    2.4510   -0.1250 C   0  0  2  0  0  0  0  0  0  0  0  0
   -0.9080    3.7910   -0.2950 C   0  0  0  0  0  0  0  0  0  0  0  0
    0.2470    4.4720   -0.3250 C   0  0  2  0  0  0  0  0  0  0  0  0
    1.4140    3.8280   -0.1890 C   0  0  0  0  0  0  0  0  0  0  0  0
    1.4130    2.4930   -0.0170 C   0  0  0  0  0  0  0  0  0  0  0  0
    0.1780    5.8760   -0.3760 C   0  0  0  0  0  0  0  0  0  0  0  0
   -1.8420    4.3480   -0.3730 H   0  0  0  0  0  0  0  0  0  0  0  0
   -2.3150    1.8320   -0.0760 C   0  0  0  0  0  0  0  0  0  0  0  0
    2.3860    2.0430    0.1330 H   0  0  0  0  0  0  0  0  0  0  0  0
    2.3490    4.3820   -0.1840 H   0  0  0  0  0  0  0  0  0  0  0  0
   -0.0750    7.0230   -0.1590 C   0  0  0  0  0  0  0  0  0  0  0  0
   -0.4880    8.3070    0.3560 C   0  0  1  0  0  0  0  0  0  0  0  0
    0.5660    9.3590    0.2160 C   0  0  0  0  0  0  0  0  0  0  0  0
   -0.2650   10.4570   -0.1760 N   0  0  0  0  0  0  0  0  0  0  0  0
   -1.4920   10.0460   -0.6220 N   0  0  0  0  0  0  0  0  0  0  0  0
   -1.6050    8.8070   -0.4590 N   0  0  0  0  0  0  0  0  0  0  0  0
    0.0510   11.7900   -0.1140 C   0  0  1  0  0  0  0  0  0  0  0  0
    1.0680    9.5490    1.1700 H   0  0  0  0  0  0  0  0  0  0  0  0
    1.3020    9.1570   -0.5700 H   0  0  0  0  0  0  0  0  0  0  0  0
   -0.8330    8.2120    1.3920 H   0  0  0  0  0  0  0  0  0  0  0  0
   -3.0810    2.5230   -0.4540 H   0  0  0  0  0  0  0  0  0  0  0  0
   -2.5890    1.5950    0.9570 H   0  0  0  0  0  0  0  0  0  0  0  0
   -2.3890    0.9430   -0.7050 H   0  0  0  0  0  0  0  0  0  0  0  0
   -0.9450   12.7030   -0.1270 C   0  0  0  0  0  0  0  0  0  0  0  0
   -0.6840   14.0160   -0.0540 C   0  0  0  0  0  0  0  0  0  0  0  0
    0.5890   14.4480    0.0160 C   0  0  2  0  0  0  0  0  0  0  0  0
    1.6010   13.5500    0.0360 C   0  0  0  0  0  0  0  0  0  0  0  0
    1.3280   12.2300   -0.0180 C   0  0  0  0  0  0  0  0  0  0  0  0
    0.8920   15.8990    0.0740 C   0  0  0  0  0  0  0  0  0  0  0  0
   -1.5200   14.7080   -0.0500 H   0  0  0  0  0  0  0  0  0  0  0  0
   -1.9850   12.3910   -0.1730 H   0  0  0  0  0  0  0  0  0  0  0  0
    2.1610   11.5320   -0.0140 H   0  0  0  0  0  0  0  0  0  0  0  0
    2.6340   13.8820    0.0870 H   0  0  0  0  0  0  0  0  0  0  0  0
   -0.2110   16.6730    0.0170 O   0  0  0  0  0  0  0  0  0  0  0  0
    2.0050   16.4040    0.1510 O   0  0  0  0  0  0  0  0  0  0  0  0
    0.1380   17.5860    0.0410 H   0  0  0  0  0  0  0  0  0  0  0  0
  1  5  1  0  0  0  0
  2  1  1  0  0  0  0
  3  2  2  0  0  0  0
  4  2  1  1  0  0  0
  4 10  5  0  0  0  0
  6  4  5  0  0  0  0
  6  7  5  0  0  0  0
  6 13  1  1  0  0  0
  7 12  1  0  0  0  0
  8  7  5  0  0  0  0
  8 11  1  1  0  0  0
  9  8  5  0  0  0  0
  9 15  1  0  0  0  0
 10  9  5  0  0  0  0
 10 14  1  0  0  0  0
 13 26  1  0  0  0  0
 13 27  1  0  0  0  0
 13 28  1  0  0  0  0
 16 11  3  0  0  0  0
 17 16  1  0  0  0  0
 17 21  1  0  0  0  0
 17 25  1  1  0  0  0
 18 17  1  0  0  0  0
 18 23  1  0  0  0  0
 18 24  1  0  0  0  0
 19 18  1  0  0  0  0
 20 19  1  0  0  0  0
 21 20  2  0  0  0  0
 22 19  1  1  0  0  0
 22 33  5  0  0  0  0
 29 22  5  0  0  0  0
 29 30  5  0  0  0  0
 29 36  1  0  0  0  0
 30 35  1  0  0  0  0
 31 30  5  0  0  0  0
 31 34  1  1  0  0  0
 32 31  5  0  0  0  0
 32 38  1  0  0  0  0
 33 32  5  0  0  0  0
 33 37  1  0  0  0  0
 34 40  2  0  0  0  0
 39 34  1  0  0  0  0
 41 39  1  0  0  0  0
M  END
