
 OpenBabel11042013043D

 41 43  0  0  1  0  0  0  0  0999 V2000
    1.5500   -0.8710    0.1870 O   0  0  0  0  0  0  0  0  0  0  0  0
    0.3460   -0.2600    0.1100 C   0  0  0  0  0  0  0  0  0  0  0  0
   -0.6850   -0.8850    0.3110 O   0  0  0  0  0  0  0  0  0  0  0  0
    0.3700    1.2040   -0.1880 C   0  0  2  0  0  0  0  0  0  0  0  0
    2.3450   -0.3140    0.1810 H   0  0  0  0  0  0  0  0  0  0  0  0
   -0.7930    1.8840   -0.1120 C   0  0  0  0  0  0  0  0  0  0  0  0
   -0.8230    3.2190   -0.3030 C   0  0  1  0  0  0  0  0  0  0  0  0
    0.3390    3.9180   -0.4980 C   0  0  2  0  0  0  0  0  0  0  0  0
    1.4630    3.2040   -0.7600 C   0  0  1  0  0  0  0  0  0  0  0  0
    1.4700    1.8660   -0.5910 C   0  0  0  0  0  0  0  0  0  0  0  0
    0.2560    5.4380   -0.3730 C   0  0  2  0  0  0  0  0  0  0  0  0
   -2.9400    3.9020    0.6360 C   0  0  0  0  0  0  0  0  0  0  0  0
   -1.7260    1.3490    0.0830 H   0  0  0  0  0  0  0  0  0  0  0  0
    2.3950    1.3440   -0.7770 H   0  0  0  0  0  0  0  0  0  0  0  0
    3.0900    3.9180   -1.4280 Br  0  0  0  0  0  0  0  0  0  0  0  0
    1.5140    6.2300   -0.0940 C   0  0  0  0  0  0  0  0  0  0  0  0
    0.9920    7.3430    0.6710 N   0  0  0  0  0  0  0  0  0  0  0  0
   -0.0970    6.8900    1.3730 N   0  0  0  0  0  0  0  0  0  0  0  0
   -0.4920    5.8020    0.8760 N   0  0  0  0  0  0  0  0  0  0  0  0
    0.8070    8.5900   -0.0410 C   0  0  2  0  0  0  0  0  0  0  0  0
    2.0510    6.5600   -0.9850 H   0  0  0  0  0  0  0  0  0  0  0  0
    2.1930    5.7050    0.5880 H   0  0  0  0  0  0  0  0  0  0  0  0
   -0.2790    5.8550   -1.2370 H   0  0  0  0  0  0  0  0  0  0  0  0
   -3.3800    2.9170    0.7990 H   0  0  0  0  0  0  0  0  0  0  0  0
   -2.4710    4.2770    1.5480 H   0  0  0  0  0  0  0  0  0  0  0  0
   -3.7470    4.5930    0.3660 H   0  0  0  0  0  0  0  0  0  0  0  0
   -2.0270    3.9000   -0.4520 O   0  0  0  0  0  0  0  0  0  0  0  0
    1.2560    9.7150    0.7270 O   0  0  0  0  0  0  0  0  0  0  0  0
   -0.7850   10.3660   -0.1190 C   0  0  0  0  0  0  0  0  0  0  0  0
   -0.6220    8.9100   -0.4890 C   0  0  0  0  0  0  0  0  0  0  0  0
    0.8000   12.2130    0.6720 C   0  0  0  0  0  0  0  0  0  0  0  0
   -0.7140    8.7420   -1.5670 H   0  0  0  0  0  0  0  0  0  0  0  0
   -1.3350   10.9310   -0.8760 H   0  0  0  0  0  0  0  0  0  0  0  0
   -1.3300   10.4430    0.8310 H   0  0  0  0  0  0  0  0  0  0  0  0
   -1.4080    8.3150   -0.0150 H   0  0  0  0  0  0  0  0  0  0  0  0
    1.1280   10.9100   -0.9280 H   0  0  0  0  0  0  0  0  0  0  0  0
    0.6500   10.8260    0.0590 C   0  0  1  0  0  0  0  0  0  0  0  0
    1.4640    8.5670   -0.9180 H   0  0  0  0  0  0  0  0  0  0  0  0
   -0.2760   13.0030    0.4610 O   0  0  0  0  0  0  0  0  0  0  0  0
    1.8010   12.6780    1.1930 O   0  0  0  0  0  0  0  0  0  0  0  0
   -0.0090   13.8710    0.8290 H   0  0  0  0  0  0  0  0  0  0  0  0
  1  5  1  0  0  0  0
  2  1  1  0  0  0  0
  3  2  2  0  0  0  0
  4  2  1  6  0  0  0
  4 10  5  0  0  0  0
  6  4  5  0  0  0  0
  6  7  5  0  0  0  0
  6 13  1  0  0  0  0
  7 27  1  6  0  0  0
  8  7  5  0  0  0  0
  8 11  1  1  0  0  0
  9  8  5  0  0  0  0
  9 15  1  6  0  0  0
 10  9  5  0  0  0  0
 10 14  1  0  0  0  0
 11 19  1  0  0  0  0
 11 23  1  6  0  0  0
 12 24  1  0  0  0  0
 12 25  1  0  0  0  0
 12 26  1  0  0  0  0
 12 27  1  0  0  0  0
 16 11  1  0  0  0  0
 16 21  1  0  0  0  0
 16 22  1  0  0  0  0
 17 16  1  0  0  0  0
 18 17  1  0  0  0  0
 19 18  2  0  0  0  0
 20 17  1  0  0  0  0
 20 30  1  0  0  0  0
 20 38  1  6  0  0  0
 28 20  1  0  0  0  0
 29 37  1  0  0  0  0
 29 34  1  0  0  0  0
 30 29  1  0  0  0  0
 30 35  1  0  0  0  0
 31 37  1  0  0  0  0
 31 40  2  0  0  0  0
 32 30  1  0  0  0  0
 33 29  1  0  0  0  0
 37 28  1  0  0  0  0
 37 36  1  6  0  0  0
 39 31  1  0  0  0  0
 41 39  1  0  0  0  0
M  END
