
 OpenBabel11042013043D

 48 50  0  0  1  0  0  0  0  0999 V2000
    0.8600   -0.7390   -0.7430 O   0  0  0  0  0  0  0  0  0  0  0  0
   -0.1910   -0.0350   -0.2850 C   0  0  0  0  0  0  0  0  0  0  0  0
   -1.2230   -0.5960    0.0580 O   0  0  0  0  0  0  0  0  0  0  0  0
   -0.0170    1.4530   -0.2970 C   0  0  1  0  0  0  0  0  0  0  0  0
    1.5750   -0.1950   -1.1010 H   0  0  0  0  0  0  0  0  0  0  0  0
   -1.2120    2.1010   -0.3010 C   0  0  0  0  0  0  0  0  0  0  0  0
   -1.2880    3.4420   -0.3000 C   0  0  0  0  0  0  0  0  0  0  0  0
   -0.1640    4.1950   -0.2810 C   0  0  2  0  0  0  0  0  0  0  0  0
    1.0050    3.5240   -0.2670 C   0  0  0  0  0  0  0  0  0  0  0  0
    1.1330    2.1840   -0.2710 C   0  0  1  0  0  0  0  0  0  0  0  0
   -0.1450    5.6650   -0.1650 C   0  0  1  0  0  0  0  0  0  0  0  0
   -2.2780    3.8860   -0.2860 H   0  0  0  0  0  0  0  0  0  0  0  0
   -2.1540    1.5540   -0.2900 H   0  0  0  0  0  0  0  0  0  0  0  0
    2.5890    1.7410   -0.2230 C   0  0  0  0  0  0  0  0  0  0  0  0
    1.9310    4.0770   -0.2160 H   0  0  0  0  0  0  0  0  0  0  0  0
    2.9800    0.9170    0.9880 C   0  0  0  0  0  0  0  0  0  0  0  0
    3.1170    1.5640    1.8620 H   0  0  0  0  0  0  0  0  0  0  0  0
    2.2420    0.1570    1.2430 H   0  0  0  0  0  0  0  0  0  0  0  0
    3.9370    0.4240    0.7900 H   0  0  0  0  0  0  0  0  0  0  0  0
    3.2630    2.6130   -0.1960 H   0  0  0  0  0  0  0  0  0  0  0  0
    2.8570    1.2570   -1.1670 H   0  0  0  0  0  0  0  0  0  0  0  0
   -1.2680    6.3770    0.0960 C   0  0  0  0  0  0  0  0  0  0  0  0
   -1.2060    7.6900    0.3670 C   0  0  0  0  0  0  0  0  0  0  0  0
   -0.0180    8.3240    0.3660 C   0  0  1  0  0  0  0  0  0  0  0  0
    1.0980    7.6550    0.0510 C   0  0  0  0  0  0  0  0  0  0  0  0
    1.0250    6.3530   -0.2310 C   0  0  0  0  0  0  0  0  0  0  0  0
    0.1320    9.7190    0.6490 C   0  0  0  0  0  0  0  0  0  0  0  0
   -2.1290    8.2180    0.5940 H   0  0  0  0  0  0  0  0  0  0  0  0
   -2.2520    5.9230    0.1290 H   0  0  0  0  0  0  0  0  0  0  0  0
    1.9800    5.9090   -0.4820 H   0  0  0  0  0  0  0  0  0  0  0  0
    2.0660    8.1480    0.0150 H   0  0  0  0  0  0  0  0  0  0  0  0
   -0.7270   10.6000    0.1350 C   0  0  0  0  0  0  0  0  0  0  0  0
   -0.4990   12.0130    0.1020 C   0  0  2  0  0  0  0  0  0  0  0  0
   -1.6270   10.2540   -0.3680 H   0  0  0  0  0  0  0  0  0  0  0  0
    1.0490   10.0260    1.1440 H   0  0  0  0  0  0  0  0  0  0  0  0
   -1.5720   12.8220    0.0670 C   0  0  0  0  0  0  0  0  0  0  0  0
   -1.4050   14.1470   -0.0260 C   0  0  0  0  0  0  0  0  0  0  0  0
   -0.1640   14.6700   -0.0910 C   0  0  2  0  0  0  0  0  0  0  0  0
    0.9170   13.8590   -0.0860 C   0  0  0  0  0  0  0  0  0  0  0  0
    0.7450   12.5350    0.0020 C   0  0  0  0  0  0  0  0  0  0  0  0
    0.0530   16.1280   -0.1680 C   0  0  0  0  0  0  0  0  0  0  0  0
   -2.2930   14.7770   -0.0520 H   0  0  0  0  0  0  0  0  0  0  0  0
   -2.5790   12.4090    0.1130 H   0  0  0  0  0  0  0  0  0  0  0  0
    1.6280   11.8940   -0.0190 H   0  0  0  0  0  0  0  0  0  0  0  0
    1.9250   14.2580   -0.1570 H   0  0  0  0  0  0  0  0  0  0  0  0
   -1.0930   16.8280   -0.1220 O   0  0  0  0  0  0  0  0  0  0  0  0
    1.1300   16.6950   -0.2420 O   0  0  0  0  0  0  0  0  0  0  0  0
   -0.7950   17.7580   -0.1430 H   0  0  0  0  0  0  0  0  0  0  0  0
  1  5  1  0  0  0  0
  2  1  1  0  0  0  0
  3  2  2  0  0  0  0
  4  2  1  1  0  0  0
  4 10  5  0  0  0  0
  6  4  5  0  0  0  0
  6  7  5  0  0  0  0
  6 13  1  0  0  0  0
  7 12  1  0  0  0  0
  8  7  5  1  0  0  0
  8 11  1  0  0  0  0
  9  8  5  0  0  0  0
  9 15  1  0  0  0  0
 10  9  5  0  0  0  0
 10 14  1  1  0  0  0
 11 22  5  1  0  0  0
 11 26  5  0  0  0  0
 14 20  1  0  0  0  0
 14 21  1  0  0  0  0
 16 17  1  0  0  0  0
 16 18  1  0  0  0  0
 16 19  1  0  0  0  0
 16 14  1  0  0  0  0
 22 23  5  0  0  0  0
 22 29  1  0  0  0  0
 23 28  1  0  0  0  0
 24 23  5  0  0  0  0
 24 27  1  6  0  0  0
 25 24  5  0  0  0  0
 25 31  1  0  0  0  0
 26 25  5  0  0  0  0
 26 30  1  0  0  0  0
 27 35  1  0  0  0  0
 32 27  2  0  0  0  0
 32 34  1  0  0  0  0
 33 32  1  6  0  0  0
 33 40  5  0  0  0  0
 36 33  5  0  0  0  0
 36 37  5  0  0  0  0
 36 43  1  0  0  0  0
 37 42  1  0  0  0  0
 38 37  5  0  0  0  0
 38 41  1  1  0  0  0
 39 38  5  0  0  0  0
 39 45  1  0  0  0  0
 40 39  5  0  0  0  0
 40 44  1  0  0  0  0
 41 47  2  0  0  0  0
 46 41  1  0  0  0  0
 48 46  1  0  0  0  0
M  END
