
 OpenBabel11042013043D

 21 21  0  0  1  0  0  0  0  0999 V2000
    0.7560    0.4720   -0.4280 O   0  0  0  0  0  0  0  0  0  0  0  0
   -0.2170    1.1050    0.2570 C   0  0  0  0  0  0  0  0  0  0  0  0
   -1.0240    0.4830    0.9260 O   0  0  0  0  0  0  0  0  0  0  0  0
   -0.1770    2.5720    0.0640 C   0  0  1  0  0  0  0  0  0  0  0  0
    0.5890   -0.4740   -0.2260 H   0  0  0  0  0  0  0  0  0  0  0  0
   -1.2510    3.1830   -0.4830 C   0  0  1  0  0  0  0  0  0  0  0  0
   -1.2600    4.5290   -0.6340 C   0  0  1  0  0  0  0  0  0  0  0  0
   -0.2050    5.2510   -0.1890 C   0  0  1  0  0  0  0  0  0  0  0  0
    0.8790    4.6460    0.3450 C   0  0  1  0  0  0  0  0  0  0  0  0
    0.9070    3.2900    0.4520 C   0  0  1  0  0  0  0  0  0  0  0  0
   -0.2570    6.7190   -0.3350 C   0  0  0  0  0  0  0  0  0  0  0  0
   -2.3300    5.1670   -1.2550 O   0  0  0  0  0  0  0  0  0  0  0  0
   -2.6440    2.2900   -1.0470 Cl  0  0  0  0  0  0  0  0  0  0  0  0
    2.0730    2.6370    0.9790 N   0  0  0  0  0  0  0  0  0  0  0  0
    2.2510    5.5830    0.8990 Cl  0  0  0  0  0  0  0  0  0  0  0  0
    2.9190    3.2050    0.9580 H   0  0  0  0  0  0  0  0  0  0  0  0
    2.2490    1.7060    0.6000 H   0  0  0  0  0  0  0  0  0  0  0  0
   -2.9970    4.5320   -1.5780 H   0  0  0  0  0  0  0  0  0  0  0  0
   -1.2720    7.2620    0.3690 O   0  0  0  0  0  0  0  0  0  0  0  0
    0.5130    7.4120   -0.9740 O   0  0  0  0  0  0  0  0  0  0  0  0
   -1.2330    8.2150    0.1470 H   0  0  0  0  0  0  0  0  0  0  0  0
  1  5  1  0  0  0  0
  2  1  1  0  0  0  0
  3  2  2  0  0  0  0
  4  2  1  1  0  0  0
  4 10  5  0  0  0  0
  6  4  5  0  0  0  0
  6  7  5  0  0  0  0
  6 13  1  6  0  0  0
  7 12  1  6  0  0  0
  8  7  5  0  0  0  0
  8 11  1  6  0  0  0
  9  8  5  0  0  0  0
  9 15  1  6  0  0  0
 10  9  5  0  0  0  0
 10 14  1  1  0  0  0
 11 20  2  0  0  0  0
 12 18  1  0  0  0  0
 14 16  1  0  0  0  0
 14 17  1  0  0  0  0
 19 11  1  0  0  0  0
 21 19  1  0  0  0  0
M  END
