
 OpenBabel11042013043D

 38 39  0  0  1  0  0  0  0  0999 V2000
    1.3470   -0.3690    0.0040 O   0  0  0  0  0  0  0  0  0  0  0  0
    0.1930    0.3050    0.1650 C   0  0  0  0  0  0  0  0  0  0  0  0
   -0.8550   -0.2900    0.4010 O   0  0  0  0  0  0  0  0  0  0  0  0
    0.2750    1.8000    0.0310 C   0  0  2  0  0  0  0  0  0  0  0  0
    2.1310    0.1530   -0.2230 H   0  0  0  0  0  0  0  0  0  0  0  0
   -0.8980    2.4610    0.0760 C   0  0  0  0  0  0  0  0  0  0  0  0
   -0.9920    3.8120   -0.0020 C   0  0  2  0  0  0  0  0  0  0  0  0
    0.1680    4.5640   -0.1290 C   0  0  2  0  0  0  0  0  0  0  0  0
    1.3470    3.8670   -0.2380 C   0  0  1  0  0  0  0  0  0  0  0  0
    1.3900    2.5250   -0.1320 C   0  0  0  0  0  0  0  0  0  0  0  0
    0.1730    6.0860   -0.0840 C   0  0  1  0  0  0  0  0  0  0  0  0
   -2.4110    4.4000    0.0610 C   0  0  0  0  0  0  0  0  0  0  0  0
   -1.8000    1.8630    0.1890 H   0  0  0  0  0  0  0  0  0  0  0  0
    2.3710    2.0680   -0.1890 H   0  0  0  0  0  0  0  0  0  0  0  0
    2.5750    4.4650   -0.4850 O   0  0  0  0  0  0  0  0  0  0  0  0
   -0.8410    6.8390   -0.5750 C   0  0  0  0  0  0  0  0  0  0  0  0
   -0.9720    8.1730   -0.3860 C   0  0  2  0  0  0  0  0  0  0  0  0
    0.0610    8.8430    0.1840 C   0  0  1  0  0  0  0  0  0  0  0  0
    1.1330    8.1380    0.6120 C   0  0  0  0  0  0  0  0  0  0  0  0
    1.1600    6.7920    0.5280 C   0  0  0  0  0  0  0  0  0  0  0  0
    0.1600   10.3190    0.4030 C   0  0  0  0  0  0  0  0  0  0  0  0
   -2.3140    8.7700   -0.7480 C   0  0  0  0  0  0  0  0  0  0  0  0
   -1.6410    6.3670   -1.1230 H   0  0  0  0  0  0  0  0  0  0  0  0
    2.0160    6.2950    0.9790 H   0  0  0  0  0  0  0  0  0  0  0  0
    1.9770    8.6450    1.0780 H   0  0  0  0  0  0  0  0  0  0  0  0
    2.4800    5.3120   -0.9510 H   0  0  0  0  0  0  0  0  0  0  0  0
   -3.0930    7.9940   -0.7600 H   0  0  0  0  0  0  0  0  0  0  0  0
   -2.6710    9.4690    0.0130 H   0  0  0  0  0  0  0  0  0  0  0  0
   -2.2960    9.2490   -1.7280 H   0  0  0  0  0  0  0  0  0  0  0  0
   -3.6170    3.5240    0.4020 C   0  0  0  0  0  0  0  0  0  0  0  0
   -3.7460    2.7180   -0.3280 H   0  0  0  0  0  0  0  0  0  0  0  0
   -3.5360    3.0990    1.4050 H   0  0  0  0  0  0  0  0  0  0  0  0
   -4.5270    4.1330    0.3610 H   0  0  0  0  0  0  0  0  0  0  0  0
   -2.6470    4.7640   -0.9450 H   0  0  0  0  0  0  0  0  0  0  0  0
   -2.4290    5.2330    0.7730 H   0  0  0  0  0  0  0  0  0  0  0  0
   -0.9960   10.9910    0.2780 O   0  0  0  0  0  0  0  0  0  0  0  0
    1.1790   10.9310    0.6830 O   0  0  0  0  0  0  0  0  0  0  0  0
   -0.7490   11.9190    0.4700 H   0  0  0  0  0  0  0  0  0  0  0  0
  1  5  1  0  0  0  0
  2  1  1  0  0  0  0
  3  2  2  0  0  0  0
  4  2  1  6  0  0  0
  4 10  5  0  0  0  0
  6  4  5  0  0  0  0
  6  7  5  0  0  0  0
  6 13  1  0  0  0  0
  7 12  1  1  0  0  0
  8  7  5  0  0  0  0
  8 11  1  1  0  0  0
  9  8  5  0  0  0  0
  9 15  1  6  0  0  0
 10  9  5  0  0  0  0
 10 14  1  0  0  0  0
 11 16  5  1  0  0  0
 11 20  5  0  0  0  0
 12 34  1  0  0  0  0
 12 35  1  0  0  0  0
 15 26  1  0  0  0  0
 16 17  5  0  0  0  0
 16 23  1  0  0  0  0
 17 22  1  1  0  0  0
 18 17  5  0  0  0  0
 18 21  1  6  0  0  0
 19 18  5  0  0  0  0
 19 25  1  0  0  0  0
 20 19  5  0  0  0  0
 20 24  1  0  0  0  0
 21 37  2  0  0  0  0
 22 27  1  0  0  0  0
 22 28  1  0  0  0  0
 22 29  1  0  0  0  0
 30 31  1  0  0  0  0
 30 32  1  0  0  0  0
 30 33  1  0  0  0  0
 30 12  1  0  0  0  0
 36 21  1  0  0  0  0
 38 36  1  0  0  0  0
M  END
