
 OpenBabel11042013043D

 29 30  0  0  1  0  0  0  0  0999 V2000
    1.0630    0.0610    0.1370 O   0  0  0  0  0  0  0  0  0  0  0  0
   -0.1190    0.7070    0.0540 C   0  0  0  0  0  0  0  0  0  0  0  0
   -1.1430    0.0500   -0.0870 O   0  0  0  0  0  0  0  0  0  0  0  0
   -0.0840    2.2210    0.0850 C   0  0  2  0  0  0  0  0  0  0  0  0
    1.8910    0.5550    0.2090 H   0  0  0  0  0  0  0  0  0  0  0  0
   -1.2410    2.9280   -0.0260 C   0  0  1  0  0  0  0  0  0  0  0  0
   -1.2140    4.2870   -0.0320 C   0  0  1  0  0  0  0  0  0  0  0  0
   -0.0450    4.9960    0.0590 C   0  0  1  0  0  0  0  0  0  0  0  0
    1.1030    4.2670    0.1470 C   0  0  1  0  0  0  0  0  0  0  0  0
    1.0710    2.9160    0.1790 C   0  0  0  0  0  0  0  0  0  0  0  0
   -0.0960    6.5320   -0.0190 C   0  0  2  0  0  0  0  0  0  0  0  0
   -2.7640    5.1190   -0.2380 Cl  0  0  0  0  0  0  0  0  0  0  0  0
   -2.5020    2.2730   -0.1720 N   0  0  0  0  0  0  0  0  0  0  0  0
    2.0260    2.4070    0.2540 H   0  0  0  0  0  0  0  0  0  0  0  0
    2.4090    4.8560    0.1250 C   0  0  0  0  0  0  0  0  0  0  0  0
    1.0750    7.4720    0.2130 C   0  0  0  0  0  0  0  0  0  0  0  0
    0.3190    8.6610    0.5290 N   0  0  0  0  0  0  0  0  0  0  0  0
   -0.8860    8.3470    1.0770 N   0  0  0  0  0  0  0  0  0  0  0  0
   -1.0550    7.1030    0.9730 N   0  0  0  0  0  0  0  0  0  0  0  0
    0.5690    9.9040    0.0180 C   0  0  0  0  0  0  0  0  0  0  0  0
    1.7230    7.6120   -0.6550 H   0  0  0  0  0  0  0  0  0  0  0  0
    1.6590    7.2270    1.1060 H   0  0  0  0  0  0  0  0  0  0  0  0
   -0.4820    6.7620   -1.0260 H   0  0  0  0  0  0  0  0  0  0  0  0
   -3.2550    2.8020   -0.6020 H   0  0  0  0  0  0  0  0  0  0  0  0
   -2.4980    1.2820   -0.4240 H   0  0  0  0  0  0  0  0  0  0  0  0
    3.4760    5.3060    0.0660 N   0  0  0  0  0  0  0  0  0  0  0  0
   -0.4570   10.7690    0.1620 O   0  0  0  0  0  0  0  0  0  0  0  0
    1.5730   10.2510   -0.5860 O   0  0  0  0  0  0  0  0  0  0  0  0
   -0.1670   11.5660   -0.3220 H   0  0  0  0  0  0  0  0  0  0  0  0
  1  5  1  0  0  0  0
  2  1  1  0  0  0  0
  3  2  2  0  0  0  0
  4  2  1  6  0  0  0
  4 10  5  0  0  0  0
  6  4  5  0  0  0  0
  6  7  5  0  0  0  0
  6 13  1  6  0  0  0
  7 12  1  6  0  0  0
  8  7  5  0  0  0  0
  8 11  1  6  0  0  0
  9  8  5  0  0  0  0
  9 15  1  6  0  0  0
 10  9  5  0  0  0  0
 10 14  1  0  0  0  0
 11 19  1  0  0  0  0
 11 23  1  6  0  0  0
 13 24  1  0  0  0  0
 13 25  1  0  0  0  0
 15 26  3  0  0  0  0
 16 11  1  0  0  0  0
 16 21  1  0  0  0  0
 16 22  1  0  0  0  0
 17 16  1  0  0  0  0
 18 17  1  0  0  0  0
 19 18  2  0  0  0  0
 20 17  1  0  0  0  0
 20 28  2  0  0  0  0
 27 20  1  0  0  0  0
 29 27  1  0  0  0  0
M  END
