
 OpenBabel11042013043D

 36 37  0  0  1  0  0  0  0  0999 V2000
    0.3420   -0.3980    0.0610 O   0  0  0  0  0  0  0  0  0  0  0  0
   -0.7210    0.4090    0.2670 C   0  0  0  0  0  0  0  0  0  0  0  0
   -1.7970   -0.0350    0.6430 O   0  0  0  0  0  0  0  0  0  0  0  0
   -0.4890    1.8610   -0.0350 C   0  0  1  0  0  0  0  0  0  0  0  0
    1.1620    0.1140   -0.0830 H   0  0  0  0  0  0  0  0  0  0  0  0
   -1.6040    2.5540   -0.3570 C   0  0  0  0  0  0  0  0  0  0  0  0
   -1.5570    3.8850   -0.4650 C   0  0  0  0  0  0  0  0  0  0  0  0
   -0.3830    4.5330   -0.3170 C   0  0  2  0  0  0  0  0  0  0  0  0
    0.7690    3.8170   -0.1600 C   0  0  2  0  0  0  0  0  0  0  0  0
    0.7240    2.4680    0.0300 C   0  0  1  0  0  0  0  0  0  0  0  0
   -0.3620    6.0150    0.0210 C   0  0  1  0  0  0  0  0  0  0  0  0
   -2.4950    4.4170   -0.6120 H   0  0  0  0  0  0  0  0  0  0  0  0
   -2.5690    2.0450   -0.4360 H   0  0  0  0  0  0  0  0  0  0  0  0
    3.1170    1.8310    0.0170 C   0  0  0  0  0  0  0  0  0  0  0  0
    2.0130    4.5360   -0.1280 C   0  0  0  0  0  0  0  0  0  0  0  0
    0.4110    6.8730   -0.8270 O   0  0  0  0  0  0  0  0  0  0  0  0
   -1.1550    8.2420    0.2100 C   0  0  0  0  0  0  0  0  0  0  0  0
   -1.6260    6.8030    0.3450 C   0  0  0  0  0  0  0  0  0  0  0  0
    0.9770    9.3420   -0.6090 N   0  0  0  0  0  0  0  0  0  0  0  0
   -2.4520    6.6160   -0.3460 H   0  0  0  0  0  0  0  0  0  0  0  0
   -1.3550    8.8470    1.0990 H   0  0  0  0  0  0  0  0  0  0  0  0
   -1.6920    8.6890   -0.6340 H   0  0  0  0  0  0  0  0  0  0  0  0
   -1.9710    6.5760    1.3600 H   0  0  0  0  0  0  0  0  0  0  0  0
    0.8750    7.9370    0.8590 H   0  0  0  0  0  0  0  0  0  0  0  0
    0.3460    8.1200   -0.0890 C   0  0  2  0  0  0  0  0  0  0  0  0
    0.1680    5.9990    0.9900 H   0  0  0  0  0  0  0  0  0  0  0  0
    3.0240    5.1090   -0.1530 N   0  0  0  0  0  0  0  0  0  0  0  0
    3.2440    2.5110   -0.8240 H   0  0  0  0  0  0  0  0  0  0  0  0
    3.4530    0.8460   -0.3170 H   0  0  0  0  0  0  0  0  0  0  0  0
    3.7320    2.1250    0.8730 H   0  0  0  0  0  0  0  0  0  0  0  0
    1.7720    1.6640    0.4350 O   0  0  0  0  0  0  0  0  0  0  0  0
    0.1590   10.2090   -0.9830 N   0  0  0  0  0  0  0  0  0  0  0  0
    0.4340   11.4420   -0.4560 C   0  0  0  0  0  0  0  0  0  0  0  0
   -0.7190   12.0880   -0.1740 O   0  0  0  0  0  0  0  0  0  0  0  0
    1.5040   11.9520   -0.1580 O   0  0  0  0  0  0  0  0  0  0  0  0
   -0.4110   12.9080    0.2580 H   0  0  0  0  0  0  0  0  0  0  0  0
  1  5  1  0  0  0  0
  2  1  1  0  0  0  0
  3  2  2  0  0  0  0
  4  2  1  1  0  0  0
  4 10  5  0  0  0  0
  6  4  5  0  0  0  0
  6  7  5  0  0  0  0
  6 13  1  0  0  0  0
  7 12  1  0  0  0  0
  8  7  5  1  0  0  0
  8 11  1  0  0  0  0
  9  8  5  0  0  0  0
  9 15  1  1  0  0  0
 10  9  5  0  0  0  0
 10 31  1  1  0  0  0
 11 18  1  0  0  0  0
 11 26  1  1  0  0  0
 14 28  1  0  0  0  0
 14 29  1  0  0  0  0
 14 30  1  0  0  0  0
 14 31  1  0  0  0  0
 15 27  3  0  0  0  0
 16 11  1  0  0  0  0
 17 25  1  0  0  0  0
 17 22  1  0  0  0  0
 18 17  1  0  0  0  0
 18 23  1  0  0  0  0
 19 25  1  0  0  0  0
 20 18  1  0  0  0  0
 21 17  1  0  0  0  0
 25 16  1  0  0  0  0
 25 24  1  1  0  0  0
 32 19  2  0  0  0  0
 33 32  1  0  0  0  0
 33 35  2  0  0  0  0
 34 33  1  0  0  0  0
 36 34  1  0  0  0  0
M  END
