36

O          0.34200       -0.39800        0.06100
C         -0.72100        0.40900        0.26700
O         -1.79700       -0.03500        0.64300
C         -0.48900        1.86100       -0.03500
H          1.16200        0.11400       -0.08300
C         -1.60400        2.55400       -0.35700
C         -1.55700        3.88500       -0.46500
C         -0.38300        4.53300       -0.31700
C          0.76900        3.81700       -0.16000
C          0.72400        2.46800        0.03000
C         -0.36200        6.01500        0.02100
H         -2.49500        4.41700       -0.61200
H         -2.56900        2.04500       -0.43600
C          3.11700        1.83100        0.01700
C          2.01300        4.53600       -0.12800
O          0.41100        6.87300       -0.82700
C         -1.15500        8.24200        0.21000
C         -1.62600        6.80300        0.34500
N          0.97700        9.34200       -0.60900
H         -2.45200        6.61600       -0.34600
H         -1.35500        8.84700        1.09900
H         -1.69200        8.68900       -0.63400
H         -1.97100        6.57600        1.36000
H          0.87500        7.93700        0.85900
C          0.34600        8.12000       -0.08900
H          0.16800        5.99900        0.99000
N          3.02400        5.10900       -0.15300
H          3.24400        2.51100       -0.82400
H          3.45300        0.84600       -0.31700
H          3.73200        2.12500        0.87300
O          1.77200        1.66400        0.43500
N          0.15900       10.20900       -0.98300
C          0.43400       11.44200       -0.45600
O         -0.71900       12.08800       -0.17400
O          1.50400       11.95200       -0.15800
H         -0.41100       12.90800        0.25800
