
 OpenBabel11042013053D

 47 49  0  0  1  0  0  0  0  0999 V2000
    0.7920    0.7720   -0.2620 O   0  0  0  0  0  0  0  0  0  0  0  0
   -0.2820    1.5700   -0.3760 C   0  0  0  0  0  0  0  0  0  0  0  0
   -1.4140    1.1130   -0.4880 O   0  0  0  0  0  0  0  0  0  0  0  0
    0.0130    3.0440   -0.3780 C   0  0  1  0  0  0  0  0  0  0  0  0
    1.6210    1.2970   -0.1540 H   0  0  0  0  0  0  0  0  0  0  0  0
   -0.9740    3.8290   -0.8300 C   0  0  0  0  0  0  0  0  0  0  0  0
   -0.8310    5.1610   -0.8010 C   0  0  0  0  0  0  0  0  0  0  0  0
    0.2900    5.8050   -0.3510 C   0  0  2  0  0  0  0  0  0  0  0  0
    1.3300    4.9830    0.0220 C   0  0  1  0  0  0  0  0  0  0  0  0
    1.1590    3.6190    0.0450 C   0  0  1  0  0  0  0  0  0  0  0  0
    0.1930    7.3870   -0.2240 C   0  0  1  0  0  0  0  0  0  0  0  0
   -1.7040    5.6960   -1.1440 H   0  0  0  0  0  0  0  0  0  0  0  0
   -1.9160    3.4050   -1.1780 H   0  0  0  0  0  0  0  0  0  0  0  0
    2.1520    2.7810    0.5500 O   0  0  0  0  0  0  0  0  0  0  0  0
    2.7110    5.5180    0.3610 C   0  0  0  0  0  0  0  0  0  0  0  0
    1.2860    8.5080   -0.3850 C   0  0  0  0  0  0  0  0  0  0  0  0
    0.5580    9.7120   -1.0530 C   0  0  1  0  0  0  0  0  0  0  0  0
   -0.8630    9.3330   -0.9710 N   0  0  0  0  0  0  0  0  0  0  0  0
   -0.8870    7.9220   -1.0900 N   0  0  0  0  0  0  0  0  0  0  0  0
    0.6750   11.2520   -0.7310 C   0  0  2  0  0  0  0  0  0  0  0  0
   -1.7910    7.5700   -0.7730 H   0  0  0  0  0  0  0  0  0  0  0  0
   -1.2270    9.6080   -0.0530 H   0  0  0  0  0  0  0  0  0  0  0  0
    2.0980    8.1710   -1.0340 H   0  0  0  0  0  0  0  0  0  0  0  0
    0.8500    9.6450   -2.1120 H   0  0  0  0  0  0  0  0  0  0  0  0
    1.7010    8.7910    0.5900 H   0  0  0  0  0  0  0  0  0  0  0  0
   -0.1550    7.5090    0.8150 H   0  0  0  0  0  0  0  0  0  0  0  0
    2.8480    6.0130    1.7860 C   0  0  0  0  0  0  0  0  0  0  0  0
    3.9050    6.1780    2.0180 H   0  0  0  0  0  0  0  0  0  0  0  0
    2.3210    6.9590    1.9260 H   0  0  0  0  0  0  0  0  0  0  0  0
    2.4520    5.2880    2.5030 H   0  0  0  0  0  0  0  0  0  0  0  0
    3.0050    6.2920   -0.3550 H   0  0  0  0  0  0  0  0  0  0  0  0
    3.4670    4.7360    0.1980 H   0  0  0  0  0  0  0  0  0  0  0  0
    2.3970    3.0560    1.4550 H   0  0  0  0  0  0  0  0  0  0  0  0
    1.8560   11.8170   -0.1280 O   0  0  0  0  0  0  0  0  0  0  0  0
   -0.0190   13.2720    0.2220 C   0  0  0  0  0  0  0  0  0  0  0  0
   -0.4540   11.8450    0.1150 C   0  0  0  0  0  0  0  0  0  0  0  0
    2.1720   14.3950   -0.2000 C   0  0  0  0  0  0  0  0  0  0  0  0
   -1.4440   11.7770   -0.3450 H   0  0  0  0  0  0  0  0  0  0  0  0
   -0.4890   13.8160    1.0480 H   0  0  0  0  0  0  0  0  0  0  0  0
   -0.2750   13.8060   -0.7050 H   0  0  0  0  0  0  0  0  0  0  0  0
   -0.4780   11.3960    1.1140 H   0  0  0  0  0  0  0  0  0  0  0  0
    1.7540   13.1320    1.4530 H   0  0  0  0  0  0  0  0  0  0  0  0
    1.4920   13.1380    0.3850 C   0  0  2  0  0  0  0  0  0  0  0  0
    0.6100   11.7390   -1.7170 H   0  0  0  0  0  0  0  0  0  0  0  0
    1.4870   15.5370    0.0710 O   0  0  0  0  0  0  0  0  0  0  0  0
    3.2240   14.4520   -0.8130 O   0  0  0  0  0  0  0  0  0  0  0  0
    1.9980   16.2550   -0.3580 H   0  0  0  0  0  0  0  0  0  0  0  0
  1  5  1  0  0  0  0
  2  1  1  0  0  0  0
  3  2  2  0  0  0  0
  4  2  1  1  0  0  0
  4 10  5  0  0  0  0
  6  4  5  0  0  0  0
  6  7  5  0  0  0  0
  6 13  1  0  0  0  0
  7 12  1  0  0  0  0
  8  7  5  1  0  0  0
  8 11  1  0  0  0  0
  9  8  5  0  0  0  0
  9 15  1  6  0  0  0
 10  9  5  0  0  0  0
 10 14  1  1  0  0  0
 11 19  1  0  0  0  0
 11 26  1  1  0  0  0
 14 33  1  0  0  0  0
 15 31  1  0  0  0  0
 15 32  1  0  0  0  0
 16 11  1  0  0  0  0
 16 23  1  0  0  0  0
 16 25  1  0  0  0  0
 17 16  1  0  0  0  0
 17 24  1  6  0  0  0
 18 17  1  0  0  0  0
 19 18  1  0  0  0  0
 20 17  1  0  0  0  0
 20 36  1  0  0  0  0
 20 44  1  6  0  0  0
 21 19  1  0  0  0  0
 22 18  1  0  0  0  0
 27 28  1  0  0  0  0
 27 29  1  0  0  0  0
 27 30  1  0  0  0  0
 27 15  1  0  0  0  0
 34 20  1  0  0  0  0
 35 43  1  0  0  0  0
 35 40  1  0  0  0  0
 36 35  1  0  0  0  0
 36 41  1  0  0  0  0
 37 43  1  0  0  0  0
 37 46  2  0  0  0  0
 38 36  1  0  0  0  0
 39 35  1  0  0  0  0
 43 34  1  0  0  0  0
 43 42  1  1  0  0  0
 45 37  1  0  0  0  0
 47 45  1  0  0  0  0
M  END
