
 OpenBabel11042013053D

 37 38  0  0  1  0  0  0  0  0999 V2000
    1.0100    0.2820   -0.0060 O   0  0  0  0  0  0  0  0  0  0  0  0
   -0.1070    1.0440   -0.0020 C   0  0  0  0  0  0  0  0  0  0  0  0
   -1.2130    0.5260   -0.0020 O   0  0  0  0  0  0  0  0  0  0  0  0
    0.1020    2.5370    0.0050 C   0  0  1  0  0  0  0  0  0  0  0  0
    1.8680    0.7330   -0.0010 H   0  0  0  0  0  0  0  0  0  0  0  0
   -1.0100    3.3200    0.0170 C   0  0  0  0  0  0  0  0  0  0  0  0
   -0.9160    4.6700    0.0250 C   0  0  0  0  0  0  0  0  0  0  0  0
    0.2780    5.3060    0.0280 C   0  0  2  0  0  0  0  0  0  0  0  0
    1.3770    4.5020    0.0130 C   0  0  0  0  0  0  0  0  0  0  0  0
    1.3000    3.1550    0.0040 C   0  0  0  0  0  0  0  0  0  0  0  0
    0.5260    6.6700    0.0450 N   0  0  0  0  0  0  0  0  0  0  0  0
   -1.8410    5.2470    0.0310 H   0  0  0  0  0  0  0  0  0  0  0  0
   -1.9950    2.8500    0.0150 H   0  0  0  0  0  0  0  0  0  0  0  0
    2.2420    2.6180   -0.0080 H   0  0  0  0  0  0  0  0  0  0  0  0
    2.3560    4.9660    0.0130 H   0  0  0  0  0  0  0  0  0  0  0  0
   -0.3770    7.5400    0.0960 N   0  0  0  0  0  0  0  0  0  0  0  0
    0.1230    8.8410    0.1600 C   0  0  0  0  0  0  0  0  0  0  0  0
   -0.6300    9.9570    0.2370 C   0  0  0  0  0  0  0  0  0  0  0  0
   -0.1370   11.3170    0.2840 C   0  0  0  0  0  0  0  0  0  0  0  0
   -1.7140    9.8430    0.2260 H   0  0  0  0  0  0  0  0  0  0  0  0
    1.2060    8.9400    0.1510 H   0  0  0  0  0  0  0  0  0  0  0  0
    0.0940   12.5020    0.2050 C   0  0  0  0  0  0  0  0  0  0  0  0
    0.1290   13.9270   -0.2160 C   0  0  2  0  0  0  0  0  0  0  0  0
    1.3300   14.8300    0.0550 C   0  0  0  0  0  0  0  0  0  0  0  0
    0.7780   16.1830   -0.4330 C   0  0  1  0  0  0  0  0  0  0  0  0
   -0.7010   16.0640   -0.2580 N   0  0  0  0  0  0  0  0  0  0  0  0
   -0.9190   14.7690    0.3770 N   0  0  0  0  0  0  0  0  0  0  0  0
    1.2740   17.5020    0.1760 C   0  0  0  0  0  0  0  0  0  0  0  0
   -1.8420   14.3930    0.1530 H   0  0  0  0  0  0  0  0  0  0  0  0
   -1.0290   16.8600    0.3070 H   0  0  0  0  0  0  0  0  0  0  0  0
    1.6180   14.8610    1.1140 H   0  0  0  0  0  0  0  0  0  0  0  0
    0.9750   16.2780   -1.5090 H   0  0  0  0  0  0  0  0  0  0  0  0
    2.2070   14.5230   -0.5260 H   0  0  0  0  0  0  0  0  0  0  0  0
   -0.0350   13.8950   -1.3040 H   0  0  0  0  0  0  0  0  0  0  0  0
    0.2880   18.4390    0.2400 O   0  0  0  0  0  0  0  0  0  0  0  0
    2.4240   17.8080    0.4450 O   0  0  0  0  0  0  0  0  0  0  0  0
    0.7330   19.2910    0.4330 H   0  0  0  0  0  0  0  0  0  0  0  0
  1  5  1  0  0  0  0
  2  1  1  0  0  0  0
  3  2  2  0  0  0  0
  4  2  1  1  0  0  0
  4 10  5  0  0  0  0
  6  4  5  0  0  0  0
  6  7  5  0  0  0  0
  6 13  1  0  0  0  0
  7 12  1  0  0  0  0
  8  7  5  0  0  0  0
  8 11  1  1  0  0  0
  9  8  5  0  0  0  0
  9 15  1  0  0  0  0
 10  9  5  0  0  0  0
 10 14  1  0  0  0  0
 16 11  2  0  0  0  0
 17 16  1  0  0  0  0
 17 21  1  0  0  0  0
 18 17  2  0  0  0  0
 18 20  1  0  0  0  0
 19 18  1  0  0  0  0
 22 19  3  0  0  0  0
 23 22  1  0  0  0  0
 23 27  1  0  0  0  0
 23 34  1  6  0  0  0
 24 23  1  0  0  0  0
 24 31  1  0  0  0  0
 24 33  1  0  0  0  0
 25 24  1  0  0  0  0
 25 32  1  6  0  0  0
 26 25  1  0  0  0  0
 27 26  1  0  0  0  0
 28 25  1  0  0  0  0
 28 36  2  0  0  0  0
 29 27  1  0  0  0  0
 30 26  1  0  0  0  0
 35 28  1  0  0  0  0
 37 35  1  0  0  0  0
M  END
