37

O          1.01000        0.28200       -0.00600
C         -0.10700        1.04400       -0.00200
O         -1.21300        0.52600       -0.00200
C          0.10200        2.53700        0.00500
H          1.86800        0.73300       -0.00100
C         -1.01000        3.32000        0.01700
C         -0.91600        4.67000        0.02500
C          0.27800        5.30600        0.02800
C          1.37700        4.50200        0.01300
C          1.30000        3.15500        0.00400
N          0.52600        6.67000        0.04500
H         -1.84100        5.24700        0.03100
H         -1.99500        2.85000        0.01500
H          2.24200        2.61800       -0.00800
H          2.35600        4.96600        0.01300
N         -0.37700        7.54000        0.09600
C          0.12300        8.84100        0.16000
C         -0.63000        9.95700        0.23700
C         -0.13700       11.31700        0.28400
H         -1.71400        9.84300        0.22600
H          1.20600        8.94000        0.15100
C          0.09400       12.50200        0.20500
C          0.12900       13.92700       -0.21600
C          1.33000       14.83000        0.05500
C          0.77800       16.18300       -0.43300
N         -0.70100       16.06400       -0.25800
N         -0.91900       14.76900        0.37700
C          1.27400       17.50200        0.17600
H         -1.84200       14.39300        0.15300
H         -1.02900       16.86000        0.30700
H          1.61800       14.86100        1.11400
H          0.97500       16.27800       -1.50900
H          2.20700       14.52300       -0.52600
H         -0.03500       13.89500       -1.30400
O          0.28800       18.43900        0.24000
O          2.42400       17.80800        0.44500
H          0.73300       19.29100        0.43300
