
 OpenBabel11042013053D

 32 32  0  0  1  0  0  0  0  0999 V2000
    1.4380    0.4010   -0.2130 O   0  0  0  0  0  0  0  0  0  0  0  0
    0.2590    1.0070    0.0400 C   0  0  0  0  0  0  0  0  0  0  0  0
   -0.6910    0.3640    0.4620 O   0  0  0  0  0  0  0  0  0  0  0  0
    0.2410    2.5010   -0.1290 C   0  0  1  0  0  0  0  0  0  0  0  0
    2.1360    0.9550   -0.5960 H   0  0  0  0  0  0  0  0  0  0  0  0
   -0.9090    3.1400   -0.4600 C   0  0  1  0  0  0  0  0  0  0  0  0
   -0.9950    4.4940   -0.2900 C   0  0  2  0  0  0  0  0  0  0  0  0
    0.1620    5.2040   -0.0690 C   0  0  1  0  0  0  0  0  0  0  0  0
    1.3540    4.5790    0.0870 C   0  0  2  0  0  0  0  0  0  0  0  0
    1.3480    3.2240    0.1430 C   0  0  0  0  0  0  0  0  0  0  0  0
    0.0720    6.6420   -0.0470 C   0  0  0  0  0  0  0  0  0  0  0  0
   -2.3460    5.2530   -0.2520 C   0  0  0  0  0  0  0  0  0  0  0  0
   -2.3170    2.1630   -1.3050 Br  0  0  0  0  0  0  0  0  0  0  0  0
    2.2760    2.7210    0.4010 H   0  0  0  0  0  0  0  0  0  0  0  0
    2.7520    5.2050    0.2470 C   0  0  0  0  0  0  0  0  0  0  0  0
   -0.0580    7.8370   -0.0520 C   0  0  0  0  0  0  0  0  0  0  0  0
   -0.2100    9.2640   -0.0650 C   0  0  0  0  0  0  0  0  0  0  0  0
    2.9600    6.7100    0.3520 C   0  0  0  0  0  0  0  0  0  0  0  0
    2.6490    7.2240   -0.5630 H   0  0  0  0  0  0  0  0  0  0  0  0
    2.4370    7.1270    1.2170 H   0  0  0  0  0  0  0  0  0  0  0  0
    4.0260    6.9290    0.4840 H   0  0  0  0  0  0  0  0  0  0  0  0
    3.2310    4.7600    1.1290 H   0  0  0  0  0  0  0  0  0  0  0  0
    3.3440    4.8770   -0.6220 H   0  0  0  0  0  0  0  0  0  0  0  0
   -3.5780    4.5320    0.3050 C   0  0  0  0  0  0  0  0  0  0  0  0
   -3.3140    3.7680    1.0450 H   0  0  0  0  0  0  0  0  0  0  0  0
   -4.2450    5.2440    0.8010 H   0  0  0  0  0  0  0  0  0  0  0  0
   -4.1640    4.0790   -0.4980 H   0  0  0  0  0  0  0  0  0  0  0  0
   -2.2370    6.0850    0.4570 H   0  0  0  0  0  0  0  0  0  0  0  0
   -2.5650    5.6970   -1.2290 H   0  0  0  0  0  0  0  0  0  0  0  0
   -1.4910    9.6760   -0.0450 O   0  0  0  0  0  0  0  0  0  0  0  0
    0.7280   10.0400   -0.0940 O   0  0  0  0  0  0  0  0  0  0  0  0
   -1.4190   10.6520   -0.0590 H   0  0  0  0  0  0  0  0  0  0  0  0
  1  5  1  0  0  0  0
  2  1  1  0  0  0  0
  3  2  2  0  0  0  0
  4  2  1  1  0  0  0
  4 10  5  0  0  0  0
  6  4  5  0  0  0  0
  6  7  5  0  0  0  0
  6 13  1  6  0  0  0
  7 12  1  1  0  0  0
  8  7  5  0  0  0  0
  8 11  1  6  0  0  0
  9  8  5  0  0  0  0
  9 15  1  1  0  0  0
 10  9  5  0  0  0  0
 10 14  1  0  0  0  0
 12 28  1  0  0  0  0
 12 29  1  0  0  0  0
 15 22  1  0  0  0  0
 15 23  1  0  0  0  0
 16 11  3  0  0  0  0
 17 16  1  0  0  0  0
 17 31  2  0  0  0  0
 18 19  1  0  0  0  0
 18 20  1  0  0  0  0
 18 21  1  0  0  0  0
 18 15  1  0  0  0  0
 24 25  1  0  0  0  0
 24 26  1  0  0  0  0
 24 27  1  0  0  0  0
 24 12  1  0  0  0  0
 30 17  1  0  0  0  0
 32 30  1  0  0  0  0
M  END
