
 OpenBabel11042013053D

 24 24  0  0  1  0  0  0  0  0999 V2000
    1.3410    0.4130   -0.1470 O   0  0  0  0  0  0  0  0  0  0  0  0
    0.1220    0.9780   -0.2140 C   0  0  0  0  0  0  0  0  0  0  0  0
   -0.8210    0.2060   -0.3140 O   0  0  0  0  0  0  0  0  0  0  0  0
   -0.0530    2.5030   -0.1760 C   0  0  1  0  0  0  0  0  0  0  0  0
    2.2030    0.8540   -0.0300 H   0  0  0  0  0  0  0  0  0  0  0  0
   -1.3240    3.0210   -0.1460 C   0  0  2  0  0  0  0  0  0  0  0  0
   -1.4950    4.3670   -0.1580 C   0  0  0  0  0  0  0  0  0  0  0  0
   -0.4740    5.2490   -0.1000 C   0  0  2  0  0  0  0  0  0  0  0  0
    0.7840    4.7390   -0.0480 C   0  0  2  0  0  0  0  0  0  0  0  0
    0.9820    3.3940   -0.1270 C   0  0  1  0  0  0  0  0  0  0  0  0
   -0.7650    6.5960    0.0470 N   0  0  0  0  0  0  0  0  0  0  0  0
   -2.5060    4.7730   -0.1550 H   0  0  0  0  0  0  0  0  0  0  0  0
   -2.6170    2.2260   -0.0180 C   0  0  0  0  0  0  0  0  0  0  0  0
    2.3190    2.9380   -0.0980 C   0  0  0  0  0  0  0  0  0  0  0  0
    2.2830    5.9120    0.2310 Br  0  0  0  0  0  0  0  0  0  0  0  0
   -0.2330    7.3890   -0.7650 N   0  0  0  0  0  0  0  0  0  0  0  0
   -0.2610    8.6810   -0.2930 C   0  0  0  0  0  0  0  0  0  0  0  0
   -3.4700    2.7560   -0.4570 H   0  0  0  0  0  0  0  0  0  0  0  0
   -2.6360    1.2530   -0.5030 H   0  0  0  0  0  0  0  0  0  0  0  0
   -2.8280    2.0880    1.0500 H   0  0  0  0  0  0  0  0  0  0  0  0
    3.3570    2.4100   -0.0570 N   0  0  0  0  0  0  0  0  0  0  0  0
   -1.5100    9.1900   -0.1980 O   0  0  0  0  0  0  0  0  0  0  0  0
    0.6950    9.3780   -0.0020 O   0  0  0  0  0  0  0  0  0  0  0  0
   -1.3400   10.0940    0.1370 H   0  0  0  0  0  0  0  0  0  0  0  0
  1  5  1  0  0  0  0
  2  1  1  0  0  0  0
  3  2  2  0  0  0  0
  4  2  1  1  0  0  0
  4 10  5  0  0  0  0
  6  4  5  0  0  0  0
  6  7  5  0  0  0  0
  6 13  1  1  0  0  0
  7 12  1  0  0  0  0
  8  7  5  0  0  0  0
  8 11  1  1  0  0  0
  9  8  5  0  0  0  0
  9 15  1  1  0  0  0
 10  9  5  0  0  0  0
 10 14  1  1  0  0  0
 13 18  1  0  0  0  0
 13 19  1  0  0  0  0
 13 20  1  0  0  0  0
 14 21  3  0  0  0  0
 16 11  2  0  0  0  0
 17 16  1  0  0  0  0
 17 23  2  0  0  0  0
 22 17  1  0  0  0  0
 24 22  1  0  0  0  0
M  END
