
 OpenBabel11042013053D

 33 34  0  0  1  0  0  0  0  0999 V2000
    1.4220   -0.0530    0.5490 O   0  0  0  0  0  0  0  0  0  0  0  0
    0.2290    0.4700    0.1870 C   0  0  0  0  0  0  0  0  0  0  0  0
   -0.7220   -0.2490   -0.0640 O   0  0  0  0  0  0  0  0  0  0  0  0
    0.1920    1.9690    0.0910 C   0  0  2  0  0  0  0  0  0  0  0  0
    2.1120    0.6200    0.7330 H   0  0  0  0  0  0  0  0  0  0  0  0
   -0.9980    2.6200    0.1090 C   0  0  1  0  0  0  0  0  0  0  0  0
   -1.0150    3.9690    0.0040 C   0  0  0  0  0  0  0  0  0  0  0  0
    0.1180    4.6930   -0.1060 C   0  0  1  0  0  0  0  0  0  0  0  0
    1.2900    4.0280   -0.1240 C   0  0  0  0  0  0  0  0  0  0  0  0
    1.3360    2.6860   -0.0510 C   0  0  2  0  0  0  0  0  0  0  0  0
    0.0430    6.0300   -0.3430 N   0  0  0  0  0  0  0  0  0  0  0  0
   -1.9680    4.5040   -0.0120 H   0  0  0  0  0  0  0  0  0  0  0  0
   -2.2710    1.9740    0.2050 C   0  0  0  0  0  0  0  0  0  0  0  0
    2.5790    2.0780   -0.1370 O   0  0  0  0  0  0  0  0  0  0  0  0
    2.2100    4.5960   -0.2530 H   0  0  0  0  0  0  0  0  0  0  0  0
    2.7510    1.7750   -1.0530 H   0  0  0  0  0  0  0  0  0  0  0  0
    0.4060    6.8340    0.5450 N   0  0  0  0  0  0  0  0  0  0  0  0
    0.2670    8.1920   -0.0140 C   0  0  2  0  0  0  0  0  0  0  0  0
    0.8460    9.3380    0.6420 O   0  0  0  0  0  0  0  0  0  0  0  0
   -1.1940   10.0700   -0.2280 C   0  0  0  0  0  0  0  0  0  0  0  0
   -1.2080    8.5600   -0.1330 C   0  0  0  0  0  0  0  0  0  0  0  0
    0.5620   11.8620    0.3640 C   0  0  0  0  0  0  0  0  0  0  0  0
   -1.7690    8.2480    0.7570 H   0  0  0  0  0  0  0  0  0  0  0  0
   -1.8030   10.4940    0.5790 H   0  0  0  0  0  0  0  0  0  0  0  0
   -1.6080   10.4260   -1.1770 H   0  0  0  0  0  0  0  0  0  0  0  0
   -1.6770    8.0850   -1.0000 H   0  0  0  0  0  0  0  0  0  0  0  0
    0.7310   10.3970   -1.1000 H   0  0  0  0  0  0  0  0  0  0  0  0
    0.2820   10.4330   -0.0960 C   0  0  1  0  0  0  0  0  0  0  0  0
    0.7340    8.1730   -1.0100 H   0  0  0  0  0  0  0  0  0  0  0  0
   -3.3510    1.5540    0.2650 N   0  0  0  0  0  0  0  0  0  0  0  0
   -0.5240   12.6620    0.3560 O   0  0  0  0  0  0  0  0  0  0  0  0
    1.6600   12.3350    0.6160 O   0  0  0  0  0  0  0  0  0  0  0  0
   -0.1720   13.5450    0.5940 H   0  0  0  0  0  0  0  0  0  0  0  0
  1  5  1  0  0  0  0
  2  1  1  0  0  0  0
  3  2  2  0  0  0  0
  4  2  1  6  0  0  0
  4 10  5  0  0  0  0
  6  4  5  0  0  0  0
  6  7  5  0  0  0  0
  6 13  1  6  0  0  0
  7 12  1  0  0  0  0
  8  7  5  0  0  0  0
  8 11  1  6  0  0  0
  9  8  5  0  0  0  0
  9 15  1  0  0  0  0
 10  9  5  0  0  0  0
 10 14  1  6  0  0  0
 13 30  3  0  0  0  0
 14 16  1  0  0  0  0
 17 11  2  0  0  0  0
 18 17  1  0  0  0  0
 18 21  1  0  0  0  0
 18 29  1  6  0  0  0
 19 18  1  0  0  0  0
 20 28  1  0  0  0  0
 20 25  1  0  0  0  0
 21 20  1  0  0  0  0
 21 26  1  0  0  0  0
 22 28  1  0  0  0  0
 22 32  2  0  0  0  0
 23 21  1  0  0  0  0
 24 20  1  0  0  0  0
 28 19  1  0  0  0  0
 28 27  1  6  0  0  0
 31 22  1  0  0  0  0
 33 31  1  0  0  0  0
M  END
