33

O          1.21100       -0.50800        0.05700
C          0.06200        0.16600       -0.14600
O         -0.97900       -0.45100       -0.33200
C          0.13200        1.67300       -0.07400
H          1.94800        0.00900        0.40900
C         -1.09800        2.24600       -0.03800
C         -1.25400        3.57900        0.07200
C         -0.18300        4.38900        0.16900
C          1.03400        3.81400        0.09900
C          1.22900        2.48300       -0.03900
C         -0.33600        5.88100        0.38700
H         -2.26700        3.98600        0.09700
H         -2.00200        1.63800       -0.09000
C          2.67600        2.07600       -0.17500
H          1.92300        4.44200        0.17100
C          0.90200        6.72900        0.20000
N          0.27900        7.94600       -0.18100
N         -0.95400        7.74300       -0.73300
N         -1.28800        6.53600       -0.55000
N          0.93700        9.12200       -0.12400
H          1.50100        6.83100        1.10800
H          1.52600        6.42400       -0.64700
H         -0.72800        6.03200        1.40300
N          0.23800       10.04300       -0.57300
N          0.78400       11.27300       -0.26600
H          2.81200        1.27500       -0.90500
H          3.08600        1.78500        0.79800
H          3.29300        2.90500       -0.54900
N         -0.16200       11.98300        0.12200
C          0.17200       13.29500        0.24300
O         -0.94400       14.04800        0.28900
O          1.27200       13.83000        0.28900
H         -0.59800       14.95900        0.32100
