37

O          0.89200        0.65900       -0.08500
C         -0.16600        1.49600       -0.06100
O         -1.30800        1.05700       -0.04400
C          0.15200        2.96400       -0.04100
H          1.77300        1.06200       -0.11900
C         -0.91100        3.80100       -0.05100
C         -0.74100        5.13800       -0.00300
C          0.49300        5.69300        0.04700
C          1.55300        4.84200        0.04000
C          1.38900        3.50500       -0.00500
C          0.74100        7.14100        0.17100
H         -1.64100        5.74700        0.00600
H         -1.92600        3.40500       -0.07800
H          2.29300        2.91000        0.00400
H          2.56300        5.23900        0.07800
C         -0.18600        8.11600        0.17700
C         -0.00800        9.58900        0.44800
H         -1.22800        7.84100        0.03100
H          1.77900        7.42500        0.34100
C          1.33400       10.30200        0.20600
C          0.94400       11.66300       -0.38500
N         -0.51600       11.71000       -0.22800
N         -0.95000       10.35600       -0.38500
N          1.61900       12.81500        0.25000
H         -1.89700       10.23100       -0.01600
H         -0.90100       12.35200       -0.92400
H          1.89800       10.39600        1.14100
H          1.19800       11.65500       -1.45500
H          1.95700        9.75900       -0.51600
H         -0.28600        9.74600        1.50000
N          1.23600       13.85800       -0.32700
N          1.73700       15.01900        0.23600
N          1.02700       15.95300       -0.19600
C          1.48500       17.18900        0.15600
O          0.53700       18.13000       -0.05200
O          2.59000       17.52700        0.55700
H          0.99000       18.96200        0.18800
