50

O          1.67300       -1.50600       -0.11600
C          0.42200       -1.01200        0.06000
O         -0.53600       -1.76900        0.05400
C          0.35800        0.48500        0.22100
H          2.37200       -0.85400       -0.28100
C         -0.82300        1.11500       -0.00400
C         -0.87100        2.45300        0.06700
C          0.21700        3.19400        0.36600
C          1.36700        2.55200        0.66700
C          1.43600        1.21100        0.60300
C          0.12300        4.64600        0.23900
H         -1.81000        2.95000       -0.16700
O         -1.97800        0.43900       -0.34600
H          2.38800        0.75700        0.84400
H          2.26100        3.11300        0.93200
C         -0.96900        5.32200        0.66600
C         -1.10000        6.63400        0.42500
C         -0.14700        7.32100       -0.24300
C          0.94600        6.64600       -0.66500
C          1.08300        5.33400       -0.41900
C         -0.25800        8.78100       -0.36800
H         -1.99300        7.12600        0.80300
H         -1.76800        4.82300        1.20800
H          1.98100        4.83900       -0.77600
H          1.75000        7.14400       -1.20000
C         -1.44800        9.41700       -0.43500
C         -1.53000       10.74900       -0.26100
C         -0.41900       11.48900       -0.03100
C          0.77600       10.86400       -0.09800
C          0.85800        9.54000       -0.26000
C         -0.51700       12.94900        0.35700
H         -2.51600       11.20400       -0.24200
H         -2.38000        8.86500       -0.55600
H          1.84600        9.09500       -0.22700
H          1.71300       11.39200        0.05300
H         -2.76500        1.00700       -0.36500
C          0.74500       13.79800        0.16600
C          0.23900       15.13900       -0.33000
N         -1.21000       15.08600       -0.06700
N         -1.56600       13.71700       -0.33200
C          0.88600       16.31900        0.36600
H         -2.46900       13.48100        0.08800
H         -1.68500       15.75500       -0.68000
H          1.43100       13.39600       -0.58700
H          0.42400       15.23000       -1.40700
H          1.28900       13.86200        1.11700
H         -0.75300       12.95400        1.43300
O          0.15100       17.45100        0.29300
O          1.99100       16.34300        0.88500
H          0.69400       18.11100        0.77000
