25

O          1.30600        0.33800       -0.41200
C          0.36500        1.01200        0.27700
O         -0.45400        0.42800        0.97700
C          0.38000        2.50300        0.14700
H          1.93500        0.83600       -0.96500
C         -0.79900        3.14300       -0.07200
C         -0.85400        4.49900       -0.07400
C          0.28500        5.22200        0.07700
C          1.45600        4.57900        0.25200
C          1.51500        3.22700        0.30500
C          0.27500        6.64900        0.07500
N         -2.13700        5.15700       -0.18500
N         -2.00500        2.41200       -0.34100
C          2.79200        2.62700        0.51500
H          2.37000        5.16400        0.36800
N          3.83400        2.12100        0.59200
H         -2.81800        2.97000       -0.57500
H         -2.21800        1.67900        0.33700
C          0.18900        7.85100        0.07000
C          0.01700        9.27300        0.05400
H         -2.14900        6.12200        0.13700
H         -2.89000        4.64600        0.26300
O         -1.27200        9.65800        0.08100
O          0.93900       10.06500        0.02200
H         -1.22400       10.63700        0.05500
