
 OpenBabel11042013053D

 52 55  0  0  1  0  0  0  0  0999 V2000
    1.0240   -1.3860    0.0400 O   0  0  0  0  0  0  0  0  0  0  0  0
   -0.1310   -0.7090   -0.1520 C   0  0  0  0  0  0  0  0  0  0  0  0
   -1.2110   -1.2800   -0.1800 O   0  0  0  0  0  0  0  0  0  0  0  0
    0.0210    0.7730   -0.2650 C   0  0  2  0  0  0  0  0  0  0  0  0
    1.8020   -0.8330    0.2230 H   0  0  0  0  0  0  0  0  0  0  0  0
   -1.0590    1.5310    0.0110 C   0  0  0  0  0  0  0  0  0  0  0  0
   -1.0050    2.8820   -0.0370 C   0  0  1  0  0  0  0  0  0  0  0  0
    0.1800    3.4770   -0.3630 C   0  0  2  0  0  0  0  0  0  0  0  0
    1.2440    2.7080   -0.6850 C   0  0  0  0  0  0  0  0  0  0  0  0
    1.1680    1.3650   -0.6560 C   0  0  0  0  0  0  0  0  0  0  0  0
    0.2900    4.9780   -0.3560 C   0  0  1  0  0  0  0  0  0  0  0  0
   -2.2670    3.7250    0.2330 C   0  0  0  0  0  0  0  0  0  0  0  0
   -1.9810    1.0350    0.3000 H   0  0  0  0  0  0  0  0  0  0  0  0
    2.0470    0.8030   -0.9520 H   0  0  0  0  0  0  0  0  0  0  0  0
    2.1840    3.1550   -0.9990 H   0  0  0  0  0  0  0  0  0  0  0  0
    1.5870    5.7070   -0.0970 C   0  0  0  0  0  0  0  0  0  0  0  0
    1.2360    6.9480   -0.7570 N   0  0  0  0  0  0  0  0  0  0  0  0
    0.3790    6.6670   -1.8130 N   0  0  0  0  0  0  0  0  0  0  0  0
   -0.0800    5.5080   -1.6860 N   0  0  0  0  0  0  0  0  0  0  0  0
    0.9120    8.0960   -0.0450 C   0  0  2  0  0  0  0  0  0  0  0  0
    2.4430    5.3000   -0.6450 H   0  0  0  0  0  0  0  0  0  0  0  0
    1.8410    5.8290    0.9590 H   0  0  0  0  0  0  0  0  0  0  0  0
   -0.4090    5.3830    0.3890 H   0  0  0  0  0  0  0  0  0  0  0  0
   -3.6250    3.1130   -0.0830 C   0  0  0  0  0  0  0  0  0  0  0  0
   -3.8500    2.2620    0.5650 H   0  0  0  0  0  0  0  0  0  0  0  0
   -3.6810    2.7950   -1.1290 H   0  0  0  0  0  0  0  0  0  0  0  0
   -4.4080    3.8630    0.0770 H   0  0  0  0  0  0  0  0  0  0  0  0
   -2.2530    4.0480    1.2820 H   0  0  0  0  0  0  0  0  0  0  0  0
   -2.2380    4.6370   -0.3790 H   0  0  0  0  0  0  0  0  0  0  0  0
   -0.3540    8.5650   -0.0280 C   0  0  0  0  0  0  0  0  0  0  0  0
   -0.6100    9.8340    0.3260 C   0  0  0  0  0  0  0  0  0  0  0  0
    0.3990   10.6720    0.6640 C   0  0  1  0  0  0  0  0  0  0  0  0
    1.6210   10.1130    0.8790 C   0  0  0  0  0  0  0  0  0  0  0  0
    1.8800    8.8390    0.5220 C   0  0  0  0  0  0  0  0  0  0  0  0
    0.2160   12.1480    0.5620 C   0  0  2  0  0  0  0  0  0  0  0  0
   -1.6330   10.1660    0.1930 H   0  0  0  0  0  0  0  0  0  0  0  0
   -1.1800    7.9640   -0.3990 H   0  0  0  0  0  0  0  0  0  0  0  0
    2.9020    8.4740    0.5710 H   0  0  0  0  0  0  0  0  0  0  0  0
    2.4640   10.7040    1.2230 H   0  0  0  0  0  0  0  0  0  0  0  0
   -1.0070   12.7410    0.5220 C   0  0  0  0  0  0  0  0  0  0  0  0
   -1.1530   14.0450    0.2120 C   0  0  0  0  0  0  0  0  0  0  0  0
   -0.0710   14.8040   -0.0470 C   0  0  1  0  0  0  0  0  0  0  0  0
    1.1530   14.2490    0.0030 C   0  0  0  0  0  0  0  0  0  0  0  0
    1.2850   12.9440    0.2980 C   0  0  0  0  0  0  0  0  0  0  0  0
   -0.1550   16.2360   -0.4090 C   0  0  0  0  0  0  0  0  0  0  0  0
   -2.1560   14.4610    0.1420 H   0  0  0  0  0  0  0  0  0  0  0  0
   -1.9200   12.1730    0.6830 H   0  0  0  0  0  0  0  0  0  0  0  0
    2.2950   12.5460    0.2560 H   0  0  0  0  0  0  0  0  0  0  0  0
    2.0440   14.8300   -0.2240 H   0  0  0  0  0  0  0  0  0  0  0  0
   -1.3740   16.7560   -0.1890 O   0  0  0  0  0  0  0  0  0  0  0  0
    0.7490   16.9320   -0.8450 O   0  0  0  0  0  0  0  0  0  0  0  0
   -1.2650   17.7020   -0.4380 H   0  0  0  0  0  0  0  0  0  0  0  0
  1  5  1  0  0  0  0
  2  1  1  0  0  0  0
  3  2  2  0  0  0  0
  4  2  1  6  0  0  0
  4 10  5  0  0  0  0
  6  4  5  0  0  0  0
  6  7  5  0  0  0  0
  6 13  1  0  0  0  0
  7 12  1  6  0  0  0
  8  7  5  0  0  0  0
  8  9  5  1  0  0  0
  8 11  1  0  0  0  0
  9 15  1  0  0  0  0
 10  9  5  0  0  0  0
 10 14  1  0  0  0  0
 11 19  1  0  0  0  0
 11 23  1  1  0  0  0
 12 28  1  0  0  0  0
 12 29  1  0  0  0  0
 16 11  1  0  0  0  0
 16 21  1  0  0  0  0
 16 22  1  0  0  0  0
 17 16  1  0  0  0  0
 18 17  1  0  0  0  0
 19 18  2  0  0  0  0
 20 17  1  6  0  0  0
 20 34  5  0  0  0  0
 24 25  1  0  0  0  0
 24 26  1  0  0  0  0
 24 27  1  0  0  0  0
 24 12  1  0  0  0  0
 30 20  5  0  0  0  0
 30 31  5  0  0  0  0
 30 37  1  0  0  0  0
 31 36  1  0  0  0  0
 32 31  5  6  0  0  0
 32 35  1  0  0  0  0
 33 32  5  0  0  0  0
 33 39  1  0  0  0  0
 34 33  5  0  0  0  0
 34 38  1  0  0  0  0
 35 40  5  6  0  0  0
 35 44  5  0  0  0  0
 40 41  5  0  0  0  0
 40 47  1  0  0  0  0
 41 46  1  0  0  0  0
 42 41  5  0  0  0  0
 42 45  1  6  0  0  0
 43 42  5  0  0  0  0
 43 49  1  0  0  0  0
 44 43  5  0  0  0  0
 44 48  1  0  0  0  0
 45 51  2  0  0  0  0
 50 45  1  0  0  0  0
 52 50  1  0  0  0  0
M  END
