52

O          1.02400       -1.38600        0.04000
C         -0.13100       -0.70900       -0.15200
O         -1.21100       -1.28000       -0.18000
C          0.02100        0.77300       -0.26500
H          1.80200       -0.83300        0.22300
C         -1.05900        1.53100        0.01100
C         -1.00500        2.88200       -0.03700
C          0.18000        3.47700       -0.36300
C          1.24400        2.70800       -0.68500
C          1.16800        1.36500       -0.65600
C          0.29000        4.97800       -0.35600
C         -2.26700        3.72500        0.23300
H         -1.98100        1.03500        0.30000
H          2.04700        0.80300       -0.95200
H          2.18400        3.15500       -0.99900
C          1.58700        5.70700       -0.09700
N          1.23600        6.94800       -0.75700
N          0.37900        6.66700       -1.81300
N         -0.08000        5.50800       -1.68600
C          0.91200        8.09600       -0.04500
H          2.44300        5.30000       -0.64500
H          1.84100        5.82900        0.95900
H         -0.40900        5.38300        0.38900
C         -3.62500        3.11300       -0.08300
H         -3.85000        2.26200        0.56500
H         -3.68100        2.79500       -1.12900
H         -4.40800        3.86300        0.07700
H         -2.25300        4.04800        1.28200
H         -2.23800        4.63700       -0.37900
C         -0.35400        8.56500       -0.02800
C         -0.61000        9.83400        0.32600
C          0.39900       10.67200        0.66400
C          1.62100       10.11300        0.87900
C          1.88000        8.83900        0.52200
C          0.21600       12.14800        0.56200
H         -1.63300       10.16600        0.19300
H         -1.18000        7.96400       -0.39900
H          2.90200        8.47400        0.57100
H          2.46400       10.70400        1.22300
C         -1.00700       12.74100        0.52200
C         -1.15300       14.04500        0.21200
C         -0.07100       14.80400       -0.04700
C          1.15300       14.24900        0.00300
C          1.28500       12.94400        0.29800
C         -0.15500       16.23600       -0.40900
H         -2.15600       14.46100        0.14200
H         -1.92000       12.17300        0.68300
H          2.29500       12.54600        0.25600
H          2.04400       14.83000       -0.22400
O         -1.37400       16.75600       -0.18900
O          0.74900       16.93200       -0.84500
H         -1.26500       17.70200       -0.43800
