25

O          1.47300        0.50900       -0.12800
C          0.28900        1.16200       -0.20600
O         -0.78100        0.58200       -0.23000
C          0.46100        2.64300       -0.26500
H          2.25400        1.09500       -0.04100
C         -0.23200        3.45000        0.58800
C          0.04700        4.78200        0.58100
C          0.90600        5.30100       -0.33700
C          1.53800        4.48300       -1.20100
C          1.33600        3.15400       -1.16500
C          1.07500        6.71500       -0.43800
C         -0.54200        5.65900        1.55800
C         -1.32000        2.88700        1.49000
O          2.03500        2.37800       -2.07500
H          2.21800        4.89300       -1.94600
H          1.64000        1.50000       -2.24200
H         -1.92500        3.66100        1.97300
H         -0.90500        2.25000        2.27600
H         -2.04600        2.32000        0.89700
C          0.93000        7.90900       -0.45400
C          0.49500        9.26900       -0.38800
N         -0.96200        6.35400        2.39100
O         -0.84500        9.39200       -0.36900
O          1.25200       10.22600       -0.33600
H         -1.00400       10.35300       -0.26400
