
 OpenBabel11042013053D

 31 32  0  0  1  0  0  0  0  0999 V2000
    0.8160    0.3320   -0.0510 O   0  0  0  0  0  0  0  0  0  0  0  0
   -0.1860    1.1910    0.2020 C   0  0  0  0  0  0  0  0  0  0  0  0
   -1.3120    0.7630    0.4240 O   0  0  0  0  0  0  0  0  0  0  0  0
    0.1310    2.6680    0.1390 C   0  0  2  0  0  0  0  0  0  0  0  0
    1.6900    0.7370   -0.2100 H   0  0  0  0  0  0  0  0  0  0  0  0
   -0.9700    3.4390    0.2300 C   0  0  0  0  0  0  0  0  0  0  0  0
   -0.8930    4.7750    0.1430 C   0  0  0  0  0  0  0  0  0  0  0  0
    0.2780    5.4380   -0.0550 C   0  0  1  0  0  0  0  0  0  0  0  0
    1.4060    4.6580   -0.1180 C   0  0  1  0  0  0  0  0  0  0  0  0
    1.3280    3.2900   -0.0070 C   0  0  2  0  0  0  0  0  0  0  0  0
    0.1970    6.9760   -0.3110 C   0  0  2  0  0  0  0  0  0  0  0  0
   -1.8420    5.3010    0.2040 H   0  0  0  0  0  0  0  0  0  0  0  0
   -1.9620    2.9960    0.3530 H   0  0  0  0  0  0  0  0  0  0  0  0
    2.7950    2.3250   -0.0820 Cl  0  0  0  0  0  0  0  0  0  0  0  0
    3.1100    5.4530   -0.4400 Br  0  0  0  0  0  0  0  0  0  0  0  0
    1.2240    8.0350    0.1420 C   0  0  0  0  0  0  0  0  0  0  0  0
    0.5380    9.3090   -0.3360 C   0  0  1  0  0  0  0  0  0  0  0  0
   -0.8950    9.0620   -0.1280 N   0  0  0  0  0  0  0  0  0  0  0  0
   -1.0250    7.6490    0.2140 N   0  0  0  0  0  0  0  0  0  0  0  0
    0.9450   10.6090    0.1980 C   0  0  0  0  0  0  0  0  0  0  0  0
   -1.8590    7.2740   -0.2400 H   0  0  0  0  0  0  0  0  0  0  0  0
   -1.2440    9.6570    0.6290 H   0  0  0  0  0  0  0  0  0  0  0  0
    2.1880    7.9620   -0.3640 H   0  0  0  0  0  0  0  0  0  0  0  0
    0.6940    9.3710   -1.4230 H   0  0  0  0  0  0  0  0  0  0  0  0
    1.3940    8.0160    1.2260 H   0  0  0  0  0  0  0  0  0  0  0  0
    0.1390    7.0350   -1.4100 H   0  0  0  0  0  0  0  0  0  0  0  0
    1.1100   11.7930    0.3640 C   0  0  0  0  0  0  0  0  0  0  0  0
    1.1880   13.2250    0.3360 C   0  0  0  0  0  0  0  0  0  0  0  0
   -0.0170   13.8350    0.2640 O   0  0  0  0  0  0  0  0  0  0  0  0
    2.2300   13.8500    0.2910 O   0  0  0  0  0  0  0  0  0  0  0  0
    0.2030   14.7810    0.1540 H   0  0  0  0  0  0  0  0  0  0  0  0
  1  5  1  0  0  0  0
  2  1  1  0  0  0  0
  3  2  2  0  0  0  0
  4  2  1  6  0  0  0
  4 10  5  0  0  0  0
  6  4  5  0  0  0  0
  6  7  5  0  0  0  0
  6 13  1  0  0  0  0
  7 12  1  0  0  0  0
  8  7  5  6  0  0  0
  8 11  1  0  0  0  0
  9  8  5  0  0  0  0
  9 15  1  6  0  0  0
 10  9  5  0  0  0  0
 10 14  1  6  0  0  0
 11 19  1  0  0  0  0
 11 26  1  6  0  0  0
 16 11  1  0  0  0  0
 16 23  1  0  0  0  0
 16 25  1  0  0  0  0
 17 16  1  0  0  0  0
 17 24  1  6  0  0  0
 18 17  1  0  0  0  0
 19 18  1  0  0  0  0
 20 17  1  0  0  0  0
 21 19  1  0  0  0  0
 22 18  1  0  0  0  0
 27 20  3  0  0  0  0
 28 27  1  0  0  0  0
 28 30  2  0  0  0  0
 29 28  1  0  0  0  0
 31 29  1  0  0  0  0
M  END
