31

O          0.81600        0.33200       -0.05100
C         -0.18600        1.19100        0.20200
O         -1.31200        0.76300        0.42400
C          0.13100        2.66800        0.13900
H          1.69000        0.73700       -0.21000
C         -0.97000        3.43900        0.23000
C         -0.89300        4.77500        0.14300
C          0.27800        5.43800       -0.05500
C          1.40600        4.65800       -0.11800
C          1.32800        3.29000       -0.00700
C          0.19700        6.97600       -0.31100
H         -1.84200        5.30100        0.20400
H         -1.96200        2.99600        0.35300
Cl         2.79500        2.32500       -0.08200
Br         3.11000        5.45300       -0.44000
C          1.22400        8.03500        0.14200
C          0.53800        9.30900       -0.33600
N         -0.89500        9.06200       -0.12800
N         -1.02500        7.64900        0.21400
C          0.94500       10.60900        0.19800
H         -1.85900        7.27400       -0.24000
H         -1.24400        9.65700        0.62900
H          2.18800        7.96200       -0.36400
H          0.69400        9.37100       -1.42300
H          1.39400        8.01600        1.22600
H          0.13900        7.03500       -1.41000
C          1.11000       11.79300        0.36400
C          1.18800       13.22500        0.33600
O         -0.01700       13.83500        0.26400
O          2.23000       13.85000        0.29100
H          0.20300       14.78100        0.15400
