
 OpenBabel11042013053D

 43 45  0  0  1  0  0  0  0  0999 V2000
    1.3180   -1.0920    0.1400 O   0  0  0  0  0  0  0  0  0  0  0  0
    0.1720   -0.3890    0.2230 C   0  0  0  0  0  0  0  0  0  0  0  0
   -0.9080   -0.9510    0.3300 O   0  0  0  0  0  0  0  0  0  0  0  0
    0.3130    1.1000    0.1600 C   0  0  2  0  0  0  0  0  0  0  0  0
    2.1400   -0.5940    0.0290 H   0  0  0  0  0  0  0  0  0  0  0  0
   -0.8280    1.8200    0.2040 C   0  0  0  0  0  0  0  0  0  0  0  0
   -0.8030    3.1640    0.1460 C   0  0  0  0  0  0  0  0  0  0  0  0
    0.3530    3.8790    0.0370 C   0  0  1  0  0  0  0  0  0  0  0  0
    1.4750    3.1200   -0.0290 C   0  0  0  0  0  0  0  0  0  0  0  0
    1.4710    1.7750    0.0480 C   0  0  0  0  0  0  0  0  0  0  0  0
    0.3610    5.3920   -0.0420 C   0  0  1  0  0  0  0  0  0  0  0  0
   -1.7790    3.6330    0.1850 H   0  0  0  0  0  0  0  0  0  0  0  0
   -1.7940    1.3210    0.2880 H   0  0  0  0  0  0  0  0  0  0  0  0
    2.4400    1.2890    0.0120 H   0  0  0  0  0  0  0  0  0  0  0  0
    2.4550    3.5410   -0.1550 H   0  0  0  0  0  0  0  0  0  0  0  0
   -0.8220    6.0740    0.0280 C   0  0  0  0  0  0  0  0  0  0  0  0
   -0.9260    7.4180    0.0390 C   0  0  2  0  0  0  0  0  0  0  0  0
    0.1760    8.1650   -0.1910 C   0  0  2  0  0  0  0  0  0  0  0  0
    1.3510    7.5130   -0.2820 C   0  0  0  0  0  0  0  0  0  0  0  0
    1.4820    6.1820   -0.1020 C   0  0  1  0  0  0  0  0  0  0  0  0
    0.1740    9.6760   -0.2640 C   0  0  2  0  0  0  0  0  0  0  0  0
   -3.2310    8.0070   -0.3510 C   0  0  0  0  0  0  0  0  0  0  0  0
   -1.7620    5.5570    0.1690 H   0  0  0  0  0  0  0  0  0  0  0  0
    2.9170    5.7790    0.1790 C   0  0  0  0  0  0  0  0  0  0  0  0
    2.2650    8.0870   -0.4260 H   0  0  0  0  0  0  0  0  0  0  0  0
    3.3980    5.2820   -0.6650 H   0  0  0  0  0  0  0  0  0  0  0  0
    3.5460    6.6460    0.4290 H   0  0  0  0  0  0  0  0  0  0  0  0
    2.9590    5.1720    1.0920 H   0  0  0  0  0  0  0  0  0  0  0  0
   -3.3630    7.0690   -0.8940 H   0  0  0  0  0  0  0  0  0  0  0  0
   -3.1870    8.8560   -1.0380 H   0  0  0  0  0  0  0  0  0  0  0  0
   -4.0980    8.1500    0.3040 H   0  0  0  0  0  0  0  0  0  0  0  0
   -2.0880    8.0170    0.4820 O   0  0  0  0  0  0  0  0  0  0  0  0
    1.4680   10.3480    0.1430 C   0  0  0  0  0  0  0  0  0  0  0  0
    0.9450   11.6230    0.5320 N   0  0  0  0  0  0  0  0  0  0  0  0
   -0.3630   11.5370    0.8940 N   0  0  0  0  0  0  0  0  0  0  0  0
   -0.7860   10.3770    0.6280 N   0  0  0  0  0  0  0  0  0  0  0  0
    1.5700   12.7970    0.2220 C   0  0  0  0  0  0  0  0  0  0  0  0
    2.1980   10.4220   -0.6670 H   0  0  0  0  0  0  0  0  0  0  0  0
    1.9310    9.8980    1.0290 H   0  0  0  0  0  0  0  0  0  0  0  0
   -0.0780    9.9630   -1.2950 H   0  0  0  0  0  0  0  0  0  0  0  0
    0.7840   13.8820    0.3680 O   0  0  0  0  0  0  0  0  0  0  0  0
    2.6940   12.9180   -0.2160 O   0  0  0  0  0  0  0  0  0  0  0  0
    1.3450   14.6020    0.0150 H   0  0  0  0  0  0  0  0  0  0  0  0
  1  5  1  0  0  0  0
  2  1  1  0  0  0  0
  3  2  2  0  0  0  0
  4  2  1  6  0  0  0
  4 10  5  0  0  0  0
  6  4  5  0  0  0  0
  6  7  5  0  0  0  0
  6 13  1  0  0  0  0
  7 12  1  0  0  0  0
  8  7  5  6  0  0  0
  8 11  1  0  0  0  0
  9  8  5  0  0  0  0
  9 15  1  0  0  0  0
 10  9  5  0  0  0  0
 10 14  1  0  0  0  0
 11 16  5  1  0  0  0
 11 20  5  0  0  0  0
 16 17  5  0  0  0  0
 16 23  1  0  0  0  0
 17 32  1  1  0  0  0
 18 17  5  0  0  0  0
 18 19  5  1  0  0  0
 18 21  1  0  0  0  0
 19 25  1  0  0  0  0
 20 19  5  0  0  0  0
 20 24  1  1  0  0  0
 21 36  1  0  0  0  0
 21 40  1  6  0  0  0
 22 29  1  0  0  0  0
 22 30  1  0  0  0  0
 22 31  1  0  0  0  0
 22 32  1  0  0  0  0
 24 26  1  0  0  0  0
 24 27  1  0  0  0  0
 24 28  1  0  0  0  0
 33 21  1  0  0  0  0
 33 38  1  0  0  0  0
 33 39  1  0  0  0  0
 34 33  1  0  0  0  0
 35 34  1  0  0  0  0
 36 35  2  0  0  0  0
 37 34  1  0  0  0  0
 37 42  2  0  0  0  0
 41 37  1  0  0  0  0
 43 41  1  0  0  0  0
M  END
