
 OpenBabel11042013053D

 25 25  0  0  1  0  0  0  0  0999 V2000
    1.4000    0.5800   -0.2360 O   0  0  0  0  0  0  0  0  0  0  0  0
    0.2070    1.1740    0.0020 C   0  0  0  0  0  0  0  0  0  0  0  0
   -0.7710    0.4790    0.2200 O   0  0  0  0  0  0  0  0  0  0  0  0
    0.2620    2.6680   -0.0280 C   0  0  1  0  0  0  0  0  0  0  0  0
    1.1930   -0.3760   -0.1510 H   0  0  0  0  0  0  0  0  0  0  0  0
   -0.8830    3.3920   -0.1410 C   0  0  1  0  0  0  0  0  0  0  0  0
   -0.8240    4.7370   -0.1540 C   0  0  0  0  0  0  0  0  0  0  0  0
    0.3490    5.4000   -0.0480 C   0  0  1  0  0  0  0  0  0  0  0  0
    1.4740    4.6680    0.0690 C   0  0  0  0  0  0  0  0  0  0  0  0
    1.4500    3.3240    0.0740 C   0  0  2  0  0  0  0  0  0  0  0  0
    0.4340    6.7730   -0.1150 N   0  0  0  0  0  0  0  0  0  0  0  0
   -1.7360    5.3200   -0.2670 H   0  0  0  0  0  0  0  0  0  0  0  0
   -2.1730    2.8070   -0.2820 N   0  0  0  0  0  0  0  0  0  0  0  0
    2.6820    2.6910    0.1710 O   0  0  0  0  0  0  0  0  0  0  0  0
    2.4330    5.1760    0.1490 H   0  0  0  0  0  0  0  0  0  0  0  0
   -0.3430    7.3970    0.6370 N   0  0  0  0  0  0  0  0  0  0  0  0
   -0.2760    8.7070    0.3770 C   0  0  0  0  0  0  0  0  0  0  0  0
    2.6130    1.7420   -0.0560 H   0  0  0  0  0  0  0  0  0  0  0  0
   -2.2770    1.8150   -0.0670 H   0  0  0  0  0  0  0  0  0  0  0  0
   -2.9950    3.3580   -0.0630 H   0  0  0  0  0  0  0  0  0  0  0  0
   -0.2810    9.8850    0.1540 C   0  0  0  0  0  0  0  0  0  0  0  0
   -0.3500   11.2910   -0.0940 C   0  0  0  0  0  0  0  0  0  0  0  0
   -1.5930   11.7970    0.0070 O   0  0  0  0  0  0  0  0  0  0  0  0
    0.6170   11.9810   -0.3600 O   0  0  0  0  0  0  0  0  0  0  0  0
   -1.4690   12.7530   -0.1600 H   0  0  0  0  0  0  0  0  0  0  0  0
  1  5  1  0  0  0  0
  2  1  1  0  0  0  0
  3  2  2  0  0  0  0
  4  2  1  1  0  0  0
  4 10  5  0  0  0  0
  6  4  5  0  0  0  0
  6  7  5  0  0  0  0
  6 13  1  6  0  0  0
  7 12  1  0  0  0  0
  8  7  5  0  0  0  0
  8 11  1  6  0  0  0
  9  8  5  0  0  0  0
  9 15  1  0  0  0  0
 10  9  5  0  0  0  0
 10 14  1  6  0  0  0
 13 19  1  0  0  0  0
 13 20  1  0  0  0  0
 14 18  1  0  0  0  0
 16 11  2  0  0  0  0
 17 16  1  0  0  0  0
 21 17  3  0  0  0  0
 22 21  1  0  0  0  0
 22 24  2  0  0  0  0
 23 22  1  0  0  0  0
 25 23  1  0  0  0  0
M  END
