32

O          1.01300       -0.23300       -0.24700
C         -0.16900        0.41600       -0.26500
O         -1.21200       -0.16500       -0.53500
C         -0.10200        1.87900        0.05400
H          1.76500        0.37000       -0.06200
C         -1.29500        2.49800        0.15200
C         -1.34800        3.82000        0.36500
C         -0.23200        4.57500        0.48600
C          0.97900        3.94600        0.42400
C          1.03500        2.59700        0.20500
N         -0.47300        5.92600        0.49100
H         -2.32500        4.30200        0.39400
H         -2.22800        1.95000        0.03000
O          2.26900        1.94900        0.10300
Br         2.64100        4.86700        0.54900
N          0.33400        6.76600        0.92600
C          0.24900        7.99600        0.10900
O          0.92300        9.18300        0.56000
C         -1.12500        9.93400       -0.27100
C         -1.19600        8.43200       -0.13100
C          0.67700       11.65300        0.26200
H         -1.85400        8.16700        0.70500
H         -1.65700       10.40100        0.56600
H         -1.59300       10.28700       -1.19500
H         -1.60200        7.95100       -1.02800
H          0.78800       10.16500       -1.23600
C          0.36200       10.24300       -0.22600
H          0.71300        7.75200       -0.85800
H          3.00600        2.59000        0.18300
O         -0.26200       12.55800       -0.08900
O          1.68800       12.02400        0.83800
H          0.08300       13.40300        0.27100
