26

O          1.43600        0.53000        0.31400
C          0.30000        1.23200        0.09900
O         -0.75100        0.65400       -0.13500
C          0.46100        2.72500        0.11800
H          2.21300        1.02700        0.61700
C         -0.62100        3.50400        0.37500
C         -0.48400        4.85000        0.34800
C          0.68400        5.46000        0.04000
C          1.74700        4.65700       -0.19100
C          1.64300        3.31600       -0.16600
C          0.84800        6.91800       -0.00200
F         -1.57600        5.59400        0.64800
C         -2.88000        3.25100       -0.23400
H          2.53800        2.75000       -0.40400
F          2.95800        5.19000       -0.47500
H         -3.55000        3.99500        0.20700
H         -2.49900        3.62000       -1.19400
H         -3.45200        2.33900       -0.42500
O         -1.84500        2.93600        0.70100
C         -0.14000        7.81700       -0.15300
C          0.12700        9.26000       -0.14100
H         -1.18100        7.54500       -0.27300
H          1.87200        7.28500        0.08300
O         -1.03100        9.93500       -0.14900
O          1.21500        9.81100       -0.10400
H         -0.76900       10.87700       -0.10700
