50

O          1.60500       -1.29500       -0.05800
C          0.37600       -0.85000       -0.41500
O         -0.52500       -1.58000       -0.78400
C          0.24400        0.61300       -0.24400
H          2.15800       -0.60400        0.35400
C         -0.84700        1.10100        0.37600
C         -0.95700        2.42900        0.58300
C          0.00800        3.27800        0.15400
C          1.06500        2.76100       -0.52500
C          1.19900        1.43300       -0.71100
C         -0.12200        4.73400        0.24900
H         -1.84700        2.80200        1.08200
H         -1.64700        0.44200        0.69700
H          2.06400        1.06800       -1.25200
H          1.83300        3.39500       -0.95600
C         -1.31800        5.29300       -0.04700
C         -1.43400        6.60200       -0.29200
C         -0.34900        7.40300       -0.26800
C          0.79700        6.87900        0.23100
C          0.92800        5.56600        0.49200
C         -0.40200        8.81400       -0.66600
H         -2.41900        6.96400       -0.55700
H         -2.21500        4.68800       -0.16600
C          2.20600        5.12100        0.95100
H          1.67000        7.50400        0.40600
C         -1.56300        9.49600       -0.75100
C         -1.56500       10.83600       -0.73200
C         -0.39400       11.48800       -0.58000
C          0.76100       10.83600       -0.82200
C          0.75100        9.50100       -0.87900
C         -0.37000       12.78900        0.15600
H         -2.52300       11.34300       -0.65200
H         -2.53400        9.01600       -0.69900
H          1.72000        9.01500       -0.95500
H          1.72700       11.33300       -0.80200
N          3.27200        4.78900        1.28400
C          0.85500       13.66900        0.06800
C          0.36800       14.96000        0.70700
N         -1.10600       14.82400        0.85100
N         -1.48400       13.71700       -0.00500
C          0.71200       16.14800       -0.16600
H         -2.33200       13.27000        0.35600
H         -1.53600       15.70400        0.53500
H          1.18400       13.79900       -0.97100
H          0.81000       15.10800        1.69700
H          1.68700       13.23800        0.64000
H         -0.41100       12.44700        1.20600
O         -0.32900       16.97400       -0.41100
O          1.81400       16.39800       -0.62900
H          0.04400       17.62900       -1.03300
