20

O          1.28200        0.52900       -0.02100
C          0.13900        1.24900       -0.01800
O         -0.91800        0.64000       -0.13000
C          0.25200        2.75700        0.07300
H          2.11100        1.03400        0.05900
C         -0.91500        3.46600       -0.02000
C         -0.91800        4.81500        0.03000
C          0.22700        5.50500        0.15900
C          1.37400        4.82500        0.26300
C          1.41200        3.46400        0.22800
C          0.24500        6.97900        0.14300
F         -2.10400        5.45800       -0.09500
N         -2.20200        2.87800       -0.17900
Br         3.14700        2.70900        0.40400
F          2.53600        5.50700        0.40600
H         -2.26100        1.92900       -0.55400
H         -2.99300        3.47200       -0.38500
O         -0.93400        7.55300        0.43500
O          1.20700        7.68300       -0.12000
H         -0.78100        8.51300        0.32000
