
 OpenBabel11042013053D

 23 23  0  0  1  0  0  0  0  0999 V2000
    2.5810    1.7530   -0.2420 O   0  0  0  0  0  0  0  0  0  0  0  0
    1.3640    2.1820    0.1630 C   0  0  0  0  0  0  0  0  0  0  0  0
    0.5550    1.3840    0.6130 O   0  0  0  0  0  0  0  0  0  0  0  0
    1.1150    3.6590    0.0300 C   0  0  1  0  0  0  0  0  0  0  0  0
    3.2220    2.4490   -0.4780 H   0  0  0  0  0  0  0  0  0  0  0  0
   -0.1570    4.1310    0.0150 C   0  0  1  0  0  0  0  0  0  0  0  0
   -0.3720    5.4760   -0.0100 C   0  0  2  0  0  0  0  0  0  0  0  0
    0.6780    6.3380   -0.0620 C   0  0  2  0  0  0  0  0  0  0  0  0
    1.9540    5.8670   -0.0910 C   0  0  1  0  0  0  0  0  0  0  0  0
    2.1410    4.5290   -0.0330 C   0  0  1  0  0  0  0  0  0  0  0  0
    0.4610    7.8180   -0.0420 C   0  0  0  0  0  0  0  0  0  0  0  0
   -1.7260    5.9390    0.0620 C   0  0  0  0  0  0  0  0  0  0  0  0
   -1.2180    3.2330    0.0250 O   0  0  0  0  0  0  0  0  0  0  0  0
    3.4100    4.0600   -0.0330 F   0  0  0  0  0  0  0  0  0  0  0  0
    3.1680    6.7660   -0.1940 C   0  0  0  0  0  0  0  0  0  0  0  0
    3.3390    7.2980    0.7470 H   0  0  0  0  0  0  0  0  0  0  0  0
    4.0840    6.2070   -0.4180 H   0  0  0  0  0  0  0  0  0  0  0  0
    3.0530    7.4890   -1.0090 H   0  0  0  0  0  0  0  0  0  0  0  0
   -2.8480    6.2270    0.1430 N   0  0  0  0  0  0  0  0  0  0  0  0
   -2.1170    3.6060    0.0480 H   0  0  0  0  0  0  0  0  0  0  0  0
   -0.6080    8.2110   -0.7510 O   0  0  0  0  0  0  0  0  0  0  0  0
    1.1570    8.6380    0.5310 O   0  0  0  0  0  0  0  0  0  0  0  0
   -0.6920    9.1740   -0.5770 H   0  0  0  0  0  0  0  0  0  0  0  0
  1  5  1  0  0  0  0
  2  1  1  0  0  0  0
  3  2  2  0  0  0  0
  4  2  1  1  0  0  0
  4 10  5  0  0  0  0
  6  4  5  0  0  0  0
  6  7  5  0  0  0  0
  6 13  1  6  0  0  0
  7 12  1  1  0  0  0
  8  7  5  0  0  0  0
  8 11  1  1  0  0  0
  9  8  5  0  0  0  0
  9 15  1  6  0  0  0
 10  9  5  0  0  0  0
 10 14  1  1  0  0  0
 11 22  2  0  0  0  0
 12 19  3  0  0  0  0
 13 20  1  0  0  0  0
 15 16  1  0  0  0  0
 15 17  1  0  0  0  0
 15 18  1  0  0  0  0
 21 11  1  0  0  0  0
 23 21  1  0  0  0  0
M  END
