55

O          1.05000       -0.25100        0.11600
C         -0.01100        0.57500       -0.00200
O         -1.13600        0.12800       -0.18500
C          0.28700        2.04500        0.09000
H          1.89000        0.16300        0.36700
C         -0.78300        2.86600        0.17000
C         -0.62900        4.20600        0.18300
C          0.60000        4.77200        0.11500
C          1.66500        3.93800        0.06200
C          1.51500        2.60000        0.04000
C          0.79200        6.21200       -0.09100
H         -1.52700        4.82400        0.19100
H         -1.79300        2.45600        0.19600
H          2.41900        2.00600       -0.05200
H          2.67000        4.35200       -0.02000
C          0.01400        7.22200        0.34200
C         -0.00300        8.57600       -0.33800
H         -0.79500        7.00800        1.03800
H          1.59900        6.45600       -0.78100
O          0.80500        9.61400        0.26100
C         -1.21400       10.63600       -0.22800
C         -1.41600        9.14700       -0.37000
C          0.74600       12.14800        0.44600
H         -1.94400        8.87700       -1.28900
H         -1.58300       10.90700        0.76900
H         -1.77200       11.21600       -0.96600
H         -2.03500        8.79500        0.46600
H          0.63700       10.90100       -1.35500
C          0.29500       10.86500       -0.31300
H          0.34600        8.45600       -1.37200
O          1.83800       12.92300       -0.15000
C          0.45200       14.32600        1.19100
C         -0.31800       13.23100        0.50700
C          2.10600       15.44200       -0.48600
H         -1.21900       12.97000        1.06000
H         -0.07100       15.28200        1.16100
H          0.56900       14.07800        2.25300
H         -0.59800       13.54700       -0.50900
H          2.60400       14.22500        1.27000
C          1.82000       14.25600        0.50300
H          1.08300       11.85500        1.44900
C          3.36500       16.24400       -0.12300
C          3.15900       17.61000       -0.76500
N          1.70700       17.70700       -1.02800
N          1.10200       16.52100       -0.46800
C          3.65100       18.77100        0.10400
H          0.27400       16.23400       -0.99800
H          1.35700       18.56300       -0.57000
H          4.26900       15.76100       -0.51300
H          3.67500       17.68500       -1.72700
H          3.47500       16.33900        0.96500
H          2.20900       15.05800       -1.51200
O          2.76300       19.78800        0.22300
O          4.75400       18.86800        0.62000
H          3.24400       20.46700        0.74400
