
 OpenBabel11042013053D

 24 24  0  0  1  0  0  0  0  0999 V2000
    0.9890    0.6460    0.2850 O   0  0  0  0  0  0  0  0  0  0  0  0
   -0.2030    1.2060   -0.0280 C   0  0  0  0  0  0  0  0  0  0  0  0
   -1.1910    0.5280   -0.2730 O   0  0  0  0  0  0  0  0  0  0  0  0
   -0.1890    2.7040   -0.0040 C   0  0  2  0  0  0  0  0  0  0  0  0
    1.7010    1.3130    0.4100 H   0  0  0  0  0  0  0  0  0  0  0  0
   -1.2660    3.3820    0.4780 C   0  0  1  0  0  0  0  0  0  0  0  0
   -1.2380    4.7430    0.5560 C   0  0  1  0  0  0  0  0  0  0  0  0
   -0.1270    5.4090    0.1500 C   0  0  1  0  0  0  0  0  0  0  0  0
    0.9220    4.7280   -0.3550 C   0  0  0  0  0  0  0  0  0  0  0  0
    0.8870    3.3880   -0.4620 C   0  0  2  0  0  0  0  0  0  0  0  0
   -0.0380    6.8350    0.1900 C   0  0  0  0  0  0  0  0  0  0  0  0
   -2.7480    5.7030    1.2260 Br  0  0  0  0  0  0  0  0  0  0  0  0
   -2.4460    2.6790    0.9000 N   0  0  0  0  0  0  0  0  0  0  0  0
    2.0060    2.7400   -1.0810 N   0  0  0  0  0  0  0  0  0  0  0  0
    1.7990    5.2780   -0.6920 H   0  0  0  0  0  0  0  0  0  0  0  0
    2.5560    3.3480   -1.6880 H   0  0  0  0  0  0  0  0  0  0  0  0
    1.7690    1.8940   -1.6070 H   0  0  0  0  0  0  0  0  0  0  0  0
   -2.5650    1.7400    0.5110 H   0  0  0  0  0  0  0  0  0  0  0  0
   -3.3090    3.2160    0.8620 H   0  0  0  0  0  0  0  0  0  0  0  0
   -0.0210    8.0350    0.1770 C   0  0  0  0  0  0  0  0  0  0  0  0
   -0.0920    9.4650    0.1240 C   0  0  0  0  0  0  0  0  0  0  0  0
   -1.3490    9.9410    0.0820 O   0  0  0  0  0  0  0  0  0  0  0  0
    0.8880   10.1860    0.0970 O   0  0  0  0  0  0  0  0  0  0  0  0
   -1.2310   10.9110    0.0300 H   0  0  0  0  0  0  0  0  0  0  0  0
  1  5  1  0  0  0  0
  2  1  1  0  0  0  0
  3  2  2  0  0  0  0
  4  2  1  6  0  0  0
  4 10  5  0  0  0  0
  6  4  5  0  0  0  0
  6  7  5  0  0  0  0
  6 13  1  6  0  0  0
  7 12  1  6  0  0  0
  8  7  5  0  0  0  0
  8 11  1  6  0  0  0
  9  8  5  0  0  0  0
  9 15  1  0  0  0  0
 10  9  5  0  0  0  0
 10 14  1  6  0  0  0
 13 18  1  0  0  0  0
 13 19  1  0  0  0  0
 14 16  1  0  0  0  0
 14 17  1  0  0  0  0
 20 11  3  0  0  0  0
 21 20  1  0  0  0  0
 21 23  2  0  0  0  0
 22 21  1  0  0  0  0
 24 22  1  0  0  0  0
M  END
