32

O          0.88000       -0.23100       -0.05200
C         -0.28800        0.43900        0.05800
O         -1.36100       -0.15000        0.05300
C         -0.15900        1.93200        0.11400
H          1.65100        0.37400       -0.02400
C         -1.32000        2.61800        0.09200
C         -1.34600        3.96800        0.04900
C         -0.16600        4.65300       -0.00400
C          0.99200        3.95800        0.09500
C          1.00900        2.61000        0.15600
C         -0.16600        6.14300       -0.27500
C         -2.70400        4.64500        0.00400
H         -2.26600        2.07500        0.08200
O          2.22100        1.93700        0.21300
H          1.94100        4.48600        0.08300
H         -3.50200        3.95500       -0.28800
H         -2.73700        5.46500       -0.72000
H         -2.95900        5.03500        0.99700
H          2.98000        2.54200        0.31000
C          1.07600        7.01900       -0.22600
N          0.35800        8.25800       -0.14700
N         -0.77900        8.12200        0.59400
N         -1.04700        6.89700        0.64500
C          0.92400        9.56700       -0.19000
H          1.67700        6.86200        0.67800
H          1.70300        6.92200       -1.11700
H         -0.58200        6.24800       -1.29100
C          0.99500       10.76100       -0.16900
C          0.64700       12.14400       -0.07300
O         -0.68500       12.33600       -0.00700
O          1.45200       13.05100       -0.02900
H         -0.80100       13.29900        0.10100
