26

O          0.98700        0.36700       -0.29900
C         -0.26300        0.75500        0.03600
O         -1.07400       -0.08300        0.38100
C         -0.46000        2.23300       -0.08400
H          0.97800       -0.60500       -0.18000
C         -1.66800        2.83900       -0.19200
C         -1.71000        4.18800       -0.31600
C         -0.59200        4.95800       -0.33900
C          0.61700        4.33200       -0.23200
C          0.65200        2.99600       -0.09900
N         -0.67600        6.32300       -0.53300
H         -2.67300        4.68200       -0.41900
Br        -3.31800        1.92100       -0.22000
H          1.63600        2.54200       -0.00600
C          2.06800        6.21800        0.29500
N         -1.26200        6.96500        0.36400
C         -1.03800        8.27900        0.19200
H          2.11000        6.96300       -0.50400
H          3.04200        6.20400        0.79500
H          1.32700        6.48400        1.05200
O          1.86800        4.93000       -0.26800
C         -0.78200        9.44700        0.07700
C         -0.43400       10.83000       -0.03800
O         -1.49200       11.66300       -0.04300
O          0.71700       11.23400       -0.11000
H         -1.09000       12.55300       -0.11200
