41

O          1.46100       -0.60600       -0.02000
C          0.24300       -0.03200       -0.08400
O         -0.77100       -0.71600       -0.03900
C          0.22500        1.46900       -0.16700
H          2.22400       -0.00900       -0.04600
C         -1.00800        2.01800       -0.16300
C         -1.16700        3.35300       -0.14700
C         -0.10500        4.19700       -0.12300
C          1.12800        3.64100       -0.19000
C          1.29400        2.29800       -0.20900
C         -0.31200        5.67700        0.18600
H         -2.18700        3.72200       -0.08500
H         -1.90000        1.39300       -0.12800
H          2.31300        1.93100       -0.21500
H          2.00500        4.28400       -0.16400
O          0.51300        6.72100       -0.42700
C         -1.52400        7.73400        0.15800
C         -1.72900        6.23500        0.08400
C          0.47000        9.33500        0.05400
H         -2.37000        5.87300        0.89500
H         -2.02700        8.18200        1.02000
H         -1.94100        8.18700       -0.74900
H         -2.20300        5.97200       -0.87000
H          0.28900        7.71600        1.30000
C         -0.00500        7.89600        0.25600
H         -0.03700        5.70300        1.25300
C          1.88600        9.71400       -0.28400
N          1.62200       11.06000       -0.76900
N          0.31100       11.18700       -1.18000
N         -0.30500       10.11400       -0.93800
N          2.31100       12.16200       -0.31900
H          2.55800        9.71100        0.57800
H          2.30600        9.14200       -1.11600
H          0.23600        9.81900        1.01700
N          1.54500       12.89700        0.34000
C          1.80500       14.20800        0.23200
C          1.68500       15.40100        0.16000
C          1.18500       16.74300        0.10500
O         -0.15300       16.77900        0.17700
O          1.87900       17.74000        0.01600
H         -0.39900       17.72800        0.13800
