
 OpenBabel11042013053D

 41 43  0  0  1  0  0  0  0  0999 V2000
    1.4610   -0.6060   -0.0200 O   0  0  0  0  0  0  0  0  0  0  0  0
    0.2430   -0.0320   -0.0840 C   0  0  0  0  0  0  0  0  0  0  0  0
   -0.7710   -0.7160   -0.0390 O   0  0  0  0  0  0  0  0  0  0  0  0
    0.2250    1.4690   -0.1670 C   0  0  1  0  0  0  0  0  0  0  0  0
    2.2240   -0.0090   -0.0460 H   0  0  0  0  0  0  0  0  0  0  0  0
   -1.0080    2.0180   -0.1630 C   0  0  0  0  0  0  0  0  0  0  0  0
   -1.1670    3.3530   -0.1470 C   0  0  0  0  0  0  0  0  0  0  0  0
   -0.1050    4.1970   -0.1230 C   0  0  2  0  0  0  0  0  0  0  0  0
    1.1280    3.6410   -0.1900 C   0  0  0  0  0  0  0  0  0  0  0  0
    1.2940    2.2980   -0.2090 C   0  0  0  0  0  0  0  0  0  0  0  0
   -0.3120    5.6770    0.1860 C   0  0  1  0  0  0  0  0  0  0  0  0
   -2.1870    3.7220   -0.0850 H   0  0  0  0  0  0  0  0  0  0  0  0
   -1.9000    1.3930   -0.1280 H   0  0  0  0  0  0  0  0  0  0  0  0
    2.3130    1.9310   -0.2150 H   0  0  0  0  0  0  0  0  0  0  0  0
    2.0050    4.2840   -0.1640 H   0  0  0  0  0  0  0  0  0  0  0  0
    0.5130    6.7210   -0.4270 O   0  0  0  0  0  0  0  0  0  0  0  0
   -1.5240    7.7340    0.1580 C   0  0  0  0  0  0  0  0  0  0  0  0
   -1.7290    6.2350    0.0840 C   0  0  0  0  0  0  0  0  0  0  0  0
    0.4700    9.3350    0.0540 C   0  0  1  0  0  0  0  0  0  0  0  0
   -2.3700    5.8730    0.8950 H   0  0  0  0  0  0  0  0  0  0  0  0
   -2.0270    8.1820    1.0200 H   0  0  0  0  0  0  0  0  0  0  0  0
   -1.9410    8.1870   -0.7490 H   0  0  0  0  0  0  0  0  0  0  0  0
   -2.2030    5.9720   -0.8700 H   0  0  0  0  0  0  0  0  0  0  0  0
    0.2890    7.7160    1.3000 H   0  0  0  0  0  0  0  0  0  0  0  0
   -0.0050    7.8960    0.2560 C   0  0  2  0  0  0  0  0  0  0  0  0
   -0.0370    5.7030    1.2530 H   0  0  0  0  0  0  0  0  0  0  0  0
    1.8860    9.7140   -0.2840 C   0  0  0  0  0  0  0  0  0  0  0  0
    1.6220   11.0600   -0.7690 N   0  0  0  0  0  0  0  0  0  0  0  0
    0.3110   11.1870   -1.1800 N   0  0  0  0  0  0  0  0  0  0  0  0
   -0.3050   10.1140   -0.9380 N   0  0  0  0  0  0  0  0  0  0  0  0
    2.3110   12.1620   -0.3190 N   0  0  0  0  0  0  0  0  0  0  0  0
    2.5580    9.7110    0.5780 H   0  0  0  0  0  0  0  0  0  0  0  0
    2.3060    9.1420   -1.1160 H   0  0  0  0  0  0  0  0  0  0  0  0
    0.2360    9.8190    1.0170 H   0  0  0  0  0  0  0  0  0  0  0  0
    1.5450   12.8970    0.3400 N   0  0  0  0  0  0  0  0  0  0  0  0
    1.8050   14.2080    0.2320 C   0  0  0  0  0  0  0  0  0  0  0  0
    1.6850   15.4010    0.1600 C   0  0  0  0  0  0  0  0  0  0  0  0
    1.1850   16.7430    0.1050 C   0  0  0  0  0  0  0  0  0  0  0  0
   -0.1530   16.7790    0.1770 O   0  0  0  0  0  0  0  0  0  0  0  0
    1.8790   17.7400    0.0160 O   0  0  0  0  0  0  0  0  0  0  0  0
   -0.3990   17.7280    0.1380 H   0  0  0  0  0  0  0  0  0  0  0  0
  1  5  1  0  0  0  0
  2  1  1  0  0  0  0
  3  2  2  0  0  0  0
  4  2  1  1  0  0  0
  4 10  5  0  0  0  0
  6  4  5  0  0  0  0
  6  7  5  0  0  0  0
  6 13  1  0  0  0  0
  7 12  1  0  0  0  0
  8  7  5  1  0  0  0
  8 11  1  0  0  0  0
  9  8  5  0  0  0  0
  9 15  1  0  0  0  0
 10  9  5  0  0  0  0
 10 14  1  0  0  0  0
 11 18  1  0  0  0  0
 11 26  1  1  0  0  0
 16 11  1  0  0  0  0
 17 25  1  0  0  0  0
 17 22  1  0  0  0  0
 18 17  1  0  0  0  0
 18 23  1  0  0  0  0
 19 25  1  0  0  0  0
 19 30  1  0  0  0  0
 19 34  1  1  0  0  0
 20 18  1  0  0  0  0
 21 17  1  0  0  0  0
 25 16  1  0  0  0  0
 25 24  1  1  0  0  0
 27 19  1  0  0  0  0
 27 32  1  0  0  0  0
 27 33  1  0  0  0  0
 28 27  1  0  0  0  0
 29 28  1  0  0  0  0
 30 29  2  0  0  0  0
 31 28  1  0  0  0  0
 35 31  2  0  0  0  0
 36 35  1  0  0  0  0
 37 36  3  0  0  0  0
 38 37  1  0  0  0  0
 38 40  2  0  0  0  0
 39 38  1  0  0  0  0
 41 39  1  0  0  0  0
M  END
