
 OpenBabel11042013053D

 41 43  0  0  1  0  0  0  0  0999 V2000
    0.9660   -0.9330    0.3700 O   0  0  0  0  0  0  0  0  0  0  0  0
   -0.2240   -0.2960    0.2700 C   0  0  0  0  0  0  0  0  0  0  0  0
   -1.2670   -0.9030    0.0740 O   0  0  0  0  0  0  0  0  0  0  0  0
   -0.1400    1.1920    0.3850 C   0  0  2  0  0  0  0  0  0  0  0  0
    1.6980   -0.2860    0.5160 H   0  0  0  0  0  0  0  0  0  0  0  0
   -1.3140    1.8480    0.5150 C   0  0  0  0  0  0  0  0  0  0  0  0
   -1.3450    3.1940    0.5060 C   0  0  0  0  0  0  0  0  0  0  0  0
   -0.2140    3.9290    0.3560 C   0  0  1  0  0  0  0  0  0  0  0  0
    0.9580    3.2530    0.3520 C   0  0  0  0  0  0  0  0  0  0  0  0
    1.0030    1.9130    0.3380 C   0  0  2  0  0  0  0  0  0  0  0  0
   -0.2320    5.3800    0.1110 C   0  0  2  0  0  0  0  0  0  0  0  0
   -2.3320    3.6450    0.5750 H   0  0  0  0  0  0  0  0  0  0  0  0
   -2.2560    1.3050    0.5770 H   0  0  0  0  0  0  0  0  0  0  0  0
    2.2990    1.3010    0.1740 N   0  0  0  0  0  0  0  0  0  0  0  0
    1.8960    3.7900    0.2890 H   0  0  0  0  0  0  0  0  0  0  0  0
    3.0460    1.9750    0.3780 H   0  0  0  0  0  0  0  0  0  0  0  0
    2.4310    1.1450   -0.8350 H   0  0  0  0  0  0  0  0  0  0  0  0
   -1.3780    5.9780   -0.3040 C   0  0  0  0  0  0  0  0  0  0  0  0
   -1.4540    7.2850   -0.5970 C   0  0  1  0  0  0  0  0  0  0  0  0
   -0.3630    8.0840   -0.4720 C   0  0  2  0  0  0  0  0  0  0  0  0
    0.8050    7.4880   -0.1450 C   0  0  0  0  0  0  0  0  0  0  0  0
    0.8660    6.1740    0.1310 C   0  0  0  0  0  0  0  0  0  0  0  0
   -0.4180    9.5810   -0.6650 C   0  0  2  0  0  0  0  0  0  0  0  0
   -3.0000    7.8020   -1.2100 Cl  0  0  0  0  0  0  0  0  0  0  0  0
   -2.2990    5.4080   -0.4110 H   0  0  0  0  0  0  0  0  0  0  0  0
    1.8530    5.7890    0.3660 H   0  0  0  0  0  0  0  0  0  0  0  0
    1.7250    8.0700   -0.1050 H   0  0  0  0  0  0  0  0  0  0  0  0
    0.6930   10.3200   -0.0680 O   0  0  0  0  0  0  0  0  0  0  0  0
   -1.1950   11.6830    0.0700 C   0  0  0  0  0  0  0  0  0  0  0  0
   -1.5950   10.2430    0.0280 C   0  0  0  0  0  0  0  0  0  0  0  0
    0.8480   12.9210    0.4950 C   0  0  0  0  0  0  0  0  0  0  0  0
   -2.5460   10.1590   -0.4930 H   0  0  0  0  0  0  0  0  0  0  0  0
   -1.7270   12.2700   -0.6840 H   0  0  0  0  0  0  0  0  0  0  0  0
   -1.4420   12.1030    1.0530 H   0  0  0  0  0  0  0  0  0  0  0  0
   -1.7160    9.8530    1.0490 H   0  0  0  0  0  0  0  0  0  0  0  0
    0.4930   11.8910   -1.2890 H   0  0  0  0  0  0  0  0  0  0  0  0
    0.3020   11.6830   -0.2280 C   0  0  1  0  0  0  0  0  0  0  0  0
   -0.3980    9.7910   -1.7430 H   0  0  0  0  0  0  0  0  0  0  0  0
    0.2210   14.0320    0.0160 O   0  0  0  0  0  0  0  0  0  0  0  0
    1.6550   12.9930    1.4020 O   0  0  0  0  0  0  0  0  0  0  0  0
    0.4470   14.7700    0.6160 H   0  0  0  0  0  0  0  0  0  0  0  0
  1  5  1  0  0  0  0
  2  1  1  0  0  0  0
  3  2  2  0  0  0  0
  4  2  1  6  0  0  0
  4 10  5  0  0  0  0
  6  4  5  0  0  0  0
  6  7  5  0  0  0  0
  6 13  1  0  0  0  0
  7 12  1  0  0  0  0
  8  7  5  6  0  0  0
  8 11  1  0  0  0  0
  9  8  5  0  0  0  0
  9 15  1  0  0  0  0
 10  9  5  0  0  0  0
 10 14  1  6  0  0  0
 11 18  5  6  0  0  0
 11 22  5  0  0  0  0
 14 16  1  0  0  0  0
 14 17  1  0  0  0  0
 18 19  5  0  0  0  0
 18 25  1  0  0  0  0
 19 24  1  6  0  0  0
 20 19  5  0  0  0  0
 20 21  5  1  0  0  0
 20 23  1  0  0  0  0
 21 27  1  0  0  0  0
 22 21  5  0  0  0  0
 22 26  1  0  0  0  0
 23 30  1  0  0  0  0
 23 38  1  6  0  0  0
 28 23  1  0  0  0  0
 29 37  1  0  0  0  0
 29 34  1  0  0  0  0
 30 29  1  0  0  0  0
 30 35  1  0  0  0  0
 31 37  1  0  0  0  0
 31 40  2  0  0  0  0
 32 30  1  0  0  0  0
 33 29  1  0  0  0  0
 37 28  1  0  0  0  0
 37 36  1  6  0  0  0
 39 31  1  0  0  0  0
 41 39  1  0  0  0  0
M  END
