41

O          0.96600       -0.93300        0.37000
C         -0.22400       -0.29600        0.27000
O         -1.26700       -0.90300        0.07400
C         -0.14000        1.19200        0.38500
H          1.69800       -0.28600        0.51600
C         -1.31400        1.84800        0.51500
C         -1.34500        3.19400        0.50600
C         -0.21400        3.92900        0.35600
C          0.95800        3.25300        0.35200
C          1.00300        1.91300        0.33800
C         -0.23200        5.38000        0.11100
H         -2.33200        3.64500        0.57500
H         -2.25600        1.30500        0.57700
N          2.29900        1.30100        0.17400
H          1.89600        3.79000        0.28900
H          3.04600        1.97500        0.37800
H          2.43100        1.14500       -0.83500
C         -1.37800        5.97800       -0.30400
C         -1.45400        7.28500       -0.59700
C         -0.36300        8.08400       -0.47200
C          0.80500        7.48800       -0.14500
C          0.86600        6.17400        0.13100
C         -0.41800        9.58100       -0.66500
Cl        -3.00000        7.80200       -1.21000
H         -2.29900        5.40800       -0.41100
H          1.85300        5.78900        0.36600
H          1.72500        8.07000       -0.10500
O          0.69300       10.32000       -0.06800
C         -1.19500       11.68300        0.07000
C         -1.59500       10.24300        0.02800
C          0.84800       12.92100        0.49500
H         -2.54600       10.15900       -0.49300
H         -1.72700       12.27000       -0.68400
H         -1.44200       12.10300        1.05300
H         -1.71600        9.85300        1.04900
H          0.49300       11.89100       -1.28900
C          0.30200       11.68300       -0.22800
H         -0.39800        9.79100       -1.74300
O          0.22100       14.03200        0.01600
O          1.65500       12.99300        1.40200
H          0.44700       14.77000        0.61600
