
 OpenBabel11042013053D

 48 50  0  0  1  0  0  0  0  0999 V2000
    1.4090   -0.3840    0.2120 O   0  0  0  0  0  0  0  0  0  0  0  0
    0.2650    0.1540    0.7080 C   0  0  0  0  0  0  0  0  0  0  0  0
   -0.5840   -0.5430    1.2390 O   0  0  0  0  0  0  0  0  0  0  0  0
    0.1600    1.6350    0.4690 C   0  0  2  0  0  0  0  0  0  0  0  0
    2.0410    0.3120   -0.0770 H   0  0  0  0  0  0  0  0  0  0  0  0
   -1.0120    2.1630    0.0200 C   0  0  1  0  0  0  0  0  0  0  0  0
   -1.0020    3.4710   -0.3190 C   0  0  0  0  0  0  0  0  0  0  0  0
    0.0660    4.2950   -0.2030 C   0  0  1  0  0  0  0  0  0  0  0  0
    1.1910    3.7500    0.3070 C   0  0  0  0  0  0  0  0  0  0  0  0
    1.2450    2.4400    0.6410 C   0  0  2  0  0  0  0  0  0  0  0  0
   -0.0150    5.7200   -0.7560 C   0  0  2  0  0  0  0  0  0  0  0  0
   -1.9140    3.8660   -0.7500 H   0  0  0  0  0  0  0  0  0  0  0  0
   -2.3390    1.4150   -0.1430 C   0  0  0  0  0  0  0  0  0  0  0  0
    2.4910    1.9230    1.1370 N   0  0  0  0  0  0  0  0  0  0  0  0
    2.0710    4.3820    0.4120 H   0  0  0  0  0  0  0  0  0  0  0  0
    0.5020    6.8400    0.0290 O   0  0  0  0  0  0  0  0  0  0  0  0
   -1.2320    7.6490   -1.3560 C   0  0  0  0  0  0  0  0  0  0  0  0
   -1.4310    6.2010   -1.0390 C   0  0  0  0  0  0  0  0  0  0  0  0
    0.1020    9.4320   -0.3330 C   0  0  2  0  0  0  0  0  0  0  0  0
   -1.9350    5.6810   -1.8570 H   0  0  0  0  0  0  0  0  0  0  0  0
   -1.2790    7.8510   -2.4300 H   0  0  0  0  0  0  0  0  0  0  0  0
   -2.0310    8.2310   -0.8820 H   0  0  0  0  0  0  0  0  0  0  0  0
   -2.0470    6.1200   -0.1320 H   0  0  0  0  0  0  0  0  0  0  0  0
    0.8970    7.9540   -1.6310 H   0  0  0  0  0  0  0  0  0  0  0  0
    0.1670    7.9780   -0.8110 C   0  0  1  0  0  0  0  0  0  0  0  0
    0.5550    5.6980   -1.6980 H   0  0  0  0  0  0  0  0  0  0  0  0
    1.3140   10.2060   -0.2640 O   0  0  0  0  0  0  0  0  0  0  0  0
   -0.4570   11.3380    0.8320 C   0  0  0  0  0  0  0  0  0  0  0  0
   -0.5860    9.8220    0.9530 C   0  0  0  0  0  0  0  0  0  0  0  0
    1.6760   12.6580    0.5500 C   0  0  0  0  0  0  0  0  0  0  0  0
   -1.6260    9.4990    1.0290 H   0  0  0  0  0  0  0  0  0  0  0  0
   -0.4260   11.8360    1.8050 H   0  0  0  0  0  0  0  0  0  0  0  0
   -1.3180   11.7480    0.2870 H   0  0  0  0  0  0  0  0  0  0  0  0
   -0.0300    9.4720    1.8300 H   0  0  0  0  0  0  0  0  0  0  0  0
    0.5280   11.9060   -1.0220 H   0  0  0  0  0  0  0  0  0  0  0  0
    0.8090   11.5370   -0.0250 C   0  0  1  0  0  0  0  0  0  0  0  0
   -0.4520    9.9070   -1.1610 H   0  0  0  0  0  0  0  0  0  0  0  0
    3.1320    2.6370    1.4790 H   0  0  0  0  0  0  0  0  0  0  0  0
    2.3920    1.1950    1.8470 H   0  0  0  0  0  0  0  0  0  0  0  0
   -3.5830    2.2460    0.2110 C   0  0  0  0  0  0  0  0  0  0  0  0
   -3.4200    2.8430    1.1160 H   0  0  0  0  0  0  0  0  0  0  0  0
   -3.8590    2.9240   -0.6050 H   0  0  0  0  0  0  0  0  0  0  0  0
   -4.4420    1.5930    0.3890 H   0  0  0  0  0  0  0  0  0  0  0  0
   -2.3870    0.5450    0.5080 H   0  0  0  0  0  0  0  0  0  0  0  0
   -2.4290    1.0510   -1.1750 H   0  0  0  0  0  0  0  0  0  0  0  0
    1.0810   13.8630    0.3840 O   0  0  0  0  0  0  0  0  0  0  0  0
    2.7730   12.5670    1.0610 O   0  0  0  0  0  0  0  0  0  0  0  0
    1.7350   14.5080    0.7220 H   0  0  0  0  0  0  0  0  0  0  0  0
  1  5  1  0  0  0  0
  2  1  1  0  0  0  0
  3  2  2  0  0  0  0
  4  2  1  6  0  0  0
  4 10  5  0  0  0  0
  6  4  5  0  0  0  0
  6  7  5  0  0  0  0
  6 13  1  6  0  0  0
  7 12  1  0  0  0  0
  8  7  5  6  0  0  0
  8 11  1  0  0  0  0
  9  8  5  0  0  0  0
  9 15  1  0  0  0  0
 10  9  5  0  0  0  0
 10 14  1  6  0  0  0
 11 18  1  0  0  0  0
 11 26  1  6  0  0  0
 13 44  1  0  0  0  0
 13 45  1  0  0  0  0
 14 38  1  0  0  0  0
 14 39  1  0  0  0  0
 16 11  1  0  0  0  0
 17 25  1  0  0  0  0
 17 22  1  0  0  0  0
 18 17  1  0  0  0  0
 18 23  1  0  0  0  0
 19 25  1  0  0  0  0
 19 29  1  0  0  0  0
 19 37  1  6  0  0  0
 20 18  1  0  0  0  0
 21 17  1  0  0  0  0
 25 16  1  0  0  0  0
 25 24  1  6  0  0  0
 27 19  1  0  0  0  0
 28 36  1  0  0  0  0
 28 33  1  0  0  0  0
 29 28  1  0  0  0  0
 29 34  1  0  0  0  0
 30 36  1  0  0  0  0
 30 47  2  0  0  0  0
 31 29  1  0  0  0  0
 32 28  1  0  0  0  0
 36 27  1  0  0  0  0
 36 35  1  6  0  0  0
 40 41  1  0  0  0  0
 40 42  1  0  0  0  0
 40 43  1  0  0  0  0
 40 13  1  0  0  0  0
 46 30  1  0  0  0  0
 48 46  1  0  0  0  0
M  END
