48

O          1.40900       -0.38400        0.21200
C          0.26500        0.15400        0.70800
O         -0.58400       -0.54300        1.23900
C          0.16000        1.63500        0.46900
H          2.04100        0.31200       -0.07700
C         -1.01200        2.16300        0.02000
C         -1.00200        3.47100       -0.31900
C          0.06600        4.29500       -0.20300
C          1.19100        3.75000        0.30700
C          1.24500        2.44000        0.64100
C         -0.01500        5.72000       -0.75600
H         -1.91400        3.86600       -0.75000
C         -2.33900        1.41500       -0.14300
N          2.49100        1.92300        1.13700
H          2.07100        4.38200        0.41200
O          0.50200        6.84000        0.02900
C         -1.23200        7.64900       -1.35600
C         -1.43100        6.20100       -1.03900
C          0.10200        9.43200       -0.33300
H         -1.93500        5.68100       -1.85700
H         -1.27900        7.85100       -2.43000
H         -2.03100        8.23100       -0.88200
H         -2.04700        6.12000       -0.13200
H          0.89700        7.95400       -1.63100
C          0.16700        7.97800       -0.81100
H          0.55500        5.69800       -1.69800
O          1.31400       10.20600       -0.26400
C         -0.45700       11.33800        0.83200
C         -0.58600        9.82200        0.95300
C          1.67600       12.65800        0.55000
H         -1.62600        9.49900        1.02900
H         -0.42600       11.83600        1.80500
H         -1.31800       11.74800        0.28700
H         -0.03000        9.47200        1.83000
H          0.52800       11.90600       -1.02200
C          0.80900       11.53700       -0.02500
H         -0.45200        9.90700       -1.16100
H          3.13200        2.63700        1.47900
H          2.39200        1.19500        1.84700
C         -3.58300        2.24600        0.21100
H         -3.42000        2.84300        1.11600
H         -3.85900        2.92400       -0.60500
H         -4.44200        1.59300        0.38900
H         -2.38700        0.54500        0.50800
H         -2.42900        1.05100       -1.17500
O          1.08100       13.86300        0.38400
O          2.77300       12.56700        1.06100
H          1.73500       14.50800        0.72200
