51

O          1.42800       -0.93100       -0.11800
C          0.25800       -0.30300        0.12500
O         -0.73700       -0.92600        0.46900
C          0.27600        1.18400       -0.05200
H          2.12300       -0.39100       -0.52800
C         -0.91800        1.81000       -0.11800
C         -0.98900        3.15400       -0.21000
C          0.12500        3.93100       -0.25800
C          1.31400        3.27300       -0.22700
C          1.39600        1.93300       -0.10800
C          0.05700        5.42800       -0.25300
H         -1.98500        3.59000       -0.21300
H         -1.84400        1.23600       -0.06600
H          2.38800        1.50400       -0.02800
H          2.25500        3.81000       -0.26900
C         -1.05200        6.12200       -0.61400
C         -1.12900        7.46000       -0.46600
C         -0.10300        8.18600        0.04400
C          1.03800        7.51800        0.33700
C          1.10100        6.17900        0.19100
C         -0.23400        9.65700        0.44000
H         -2.07000        7.94200       -0.72000
H         -1.93500        5.61500       -0.99000
H          2.02000        5.69900        0.50500
O          2.13000        8.20400        0.83200
C          0.64600       10.74900       -0.17500
C         -0.03100       12.02000        0.37100
N         -1.45700       11.63500        0.52700
N         -1.56800       10.23700        0.20500
C          0.19400       13.32800       -0.43800
H         -2.23900        9.77300        0.82200
H         -2.05700       12.18300       -0.09100
H          1.68800       10.68400        0.15800
H          0.36800       12.18700        1.38300
H          0.62600       10.71200       -1.27100
H         -0.07500        9.67200        1.53100
O          1.39100       14.02800       -0.00800
C         -0.27700       15.66100       -0.34100
C         -0.94700       14.32800       -0.24000
C          2.04300       16.49200       -0.05900
H         -1.74800       14.19900       -0.97400
H         -0.14300       15.94100       -1.39200
H         -0.84600       16.45500        0.15200
H         -1.38200       14.23900        0.76300
H          0.95800       15.41400        1.42200
C          1.05400       15.38500        0.33000
H          0.31800       13.10800       -1.50500
H          2.92000        7.64400        0.92000
O          1.56200       17.72200        0.24300
O          3.14100       16.37100       -0.56900
H          2.25600       18.34000       -0.07000
