
 OpenBabel11042013053D

 46 48  0  0  1  0  0  0  0  0999 V2000
    1.8290   -0.5510    0.4600 O   0  0  0  0  0  0  0  0  0  0  0  0
    0.6090   -0.1560    0.0280 C   0  0  0  0  0  0  0  0  0  0  0  0
   -0.2660   -0.9490   -0.2810 O   0  0  0  0  0  0  0  0  0  0  0  0
    0.4320    1.3230    0.0240 C   0  0  2  0  0  0  0  0  0  0  0  0
    2.3670    0.1640    0.8460 H   0  0  0  0  0  0  0  0  0  0  0  0
   -0.7700    1.8240    0.3470 C   0  0  0  0  0  0  0  0  0  0  0  0
   -0.9530    3.1540    0.3780 C   0  0  0  0  0  0  0  0  0  0  0  0
    0.0340    4.0480    0.0760 C   0  0  1  0  0  0  0  0  0  0  0  0
    1.2500    3.5160   -0.2960 C   0  0  1  0  0  0  0  0  0  0  0  0
    1.4210    2.1680   -0.3120 C   0  0  0  0  0  0  0  0  0  0  0  0
   -0.2860    5.5270    0.1370 C   0  0  1  0  0  0  0  0  0  0  0  0
   -1.9460    3.4930    0.6630 H   0  0  0  0  0  0  0  0  0  0  0  0
   -1.5990    1.1610    0.5860 H   0  0  0  0  0  0  0  0  0  0  0  0
    2.3790    1.7570   -0.6240 H   0  0  0  0  0  0  0  0  0  0  0  0
    2.4660    4.3000   -0.7520 C   0  0  0  0  0  0  0  0  0  0  0  0
    2.9910    4.7340    0.1050 H   0  0  0  0  0  0  0  0  0  0  0  0
    3.2060    3.6600   -1.2500 H   0  0  0  0  0  0  0  0  0  0  0  0
    2.2030    5.0730   -1.4790 H   0  0  0  0  0  0  0  0  0  0  0  0
   -1.5330    6.0180   -0.0820 C   0  0  0  0  0  0  0  0  0  0  0  0
   -1.7920    7.3460   -0.1090 C   0  0  0  0  0  0  0  0  0  0  0  0
   -0.8010    8.2580    0.0660 C   0  0  1  0  0  0  0  0  0  0  0  0
    0.4360    7.7940    0.3880 C   0  0  2  0  0  0  0  0  0  0  0  0
    0.6520    6.4590    0.4350 C   0  0  0  0  0  0  0  0  0  0  0  0
   -1.0570    9.7380   -0.2130 C   0  0  2  0  0  0  0  0  0  0  0  0
   -2.8070    7.6640   -0.3070 H   0  0  0  0  0  0  0  0  0  0  0  0
   -2.3760    5.3590   -0.2780 H   0  0  0  0  0  0  0  0  0  0  0  0
    1.6350    6.1350    0.7280 H   0  0  0  0  0  0  0  0  0  0  0  0
    2.7580    8.5350    0.2180 C   0  0  0  0  0  0  0  0  0  0  0  0
   -0.1880   10.6500    0.4790 O   0  0  0  0  0  0  0  0  0  0  0  0
   -2.0760   11.8790   -0.1490 C   0  0  0  0  0  0  0  0  0  0  0  0
   -2.4140   10.3950    0.0050 C   0  0  0  0  0  0  0  0  0  0  0  0
   -0.0210   13.1110    0.8350 C   0  0  0  0  0  0  0  0  0  0  0  0
   -2.7900   10.2120    1.0180 H   0  0  0  0  0  0  0  0  0  0  0  0
   -2.3540   12.2440   -1.1460 H   0  0  0  0  0  0  0  0  0  0  0  0
   -2.6180   12.4900    0.5790 H   0  0  0  0  0  0  0  0  0  0  0  0
   -3.1740   10.0720   -0.7130 H   0  0  0  0  0  0  0  0  0  0  0  0
   -0.0910   12.0600   -0.9800 H   0  0  0  0  0  0  0  0  0  0  0  0
   -0.5560   11.9460    0.0090 C   0  0  1  0  0  0  0  0  0  0  0  0
   -0.8150    9.8390   -1.2830 H   0  0  0  0  0  0  0  0  0  0  0  0
    3.4120    9.0640    0.9180 H   0  0  0  0  0  0  0  0  0  0  0  0
    2.8690    9.0040   -0.7650 H   0  0  0  0  0  0  0  0  0  0  0  0
    3.0940    7.4980    0.1720 H   0  0  0  0  0  0  0  0  0  0  0  0
    1.4320    8.7040    0.6870 O   0  0  0  0  0  0  0  0  0  0  0  0
   -0.6840   14.2660    0.6090 O   0  0  0  0  0  0  0  0  0  0  0  0
    0.9670   13.1190    1.5530 O   0  0  0  0  0  0  0  0  0  0  0  0
   -0.1840   14.9170    1.1480 H   0  0  0  0  0  0  0  0  0  0  0  0
  1  5  1  0  0  0  0
  2  1  1  0  0  0  0
  3  2  2  0  0  0  0
  4  2  1  6  0  0  0
  4 10  5  0  0  0  0
  6  4  5  0  0  0  0
  6  7  5  0  0  0  0
  6 13  1  0  0  0  0
  7 12  1  0  0  0  0
  8  7  5  6  0  0  0
  8 11  1  0  0  0  0
  9  8  5  0  0  0  0
  9 15  1  6  0  0  0
 10  9  5  0  0  0  0
 10 14  1  0  0  0  0
 11 19  5  1  0  0  0
 11 23  5  0  0  0  0
 15 16  1  0  0  0  0
 15 17  1  0  0  0  0
 15 18  1  0  0  0  0
 19 20  5  0  0  0  0
 19 26  1  0  0  0  0
 20 25  1  0  0  0  0
 21 20  5  6  0  0  0
 21 24  1  0  0  0  0
 22 21  5  0  0  0  0
 22 43  1  1  0  0  0
 23 22  5  0  0  0  0
 23 27  1  0  0  0  0
 24 31  1  0  0  0  0
 24 39  1  6  0  0  0
 28 40  1  0  0  0  0
 28 41  1  0  0  0  0
 28 42  1  0  0  0  0
 28 43  1  0  0  0  0
 29 24  1  0  0  0  0
 30 38  1  0  0  0  0
 30 35  1  0  0  0  0
 31 30  1  0  0  0  0
 31 36  1  0  0  0  0
 32 38  1  0  0  0  0
 32 45  2  0  0  0  0
 33 31  1  0  0  0  0
 34 30  1  0  0  0  0
 38 29  1  0  0  0  0
 38 37  1  6  0  0  0
 44 32  1  0  0  0  0
 46 44  1  0  0  0  0
M  END
