
 OpenBabel11042013053D

 35 36  0  0  1  0  0  0  0  0999 V2000
    0.9530    0.6860   -0.0220 O   0  0  0  0  0  0  0  0  0  0  0  0
   -0.1440    1.4730   -0.0280 C   0  0  0  0  0  0  0  0  0  0  0  0
   -1.2610    0.9750   -0.0730 O   0  0  0  0  0  0  0  0  0  0  0  0
    0.0910    2.9600    0.0170 C   0  0  2  0  0  0  0  0  0  0  0  0
    1.8220    1.1080    0.0420 H   0  0  0  0  0  0  0  0  0  0  0  0
   -1.0090    3.7460    0.0620 C   0  0  0  0  0  0  0  0  0  0  0  0
   -0.9010    5.0970    0.0930 C   0  0  0  0  0  0  0  0  0  0  0  0
    0.3030    5.7210    0.0820 C   0  0  1  0  0  0  0  0  0  0  0  0
    1.4030    4.9110    0.0430 C   0  0  1  0  0  0  0  0  0  0  0  0
    1.2960    3.5630    0.0090 C   0  0  0  0  0  0  0  0  0  0  0  0
    0.4240    7.2060    0.0830 C   0  0  0  0  0  0  0  0  0  0  0  0
   -1.8310    5.6540    0.1140 H   0  0  0  0  0  0  0  0  0  0  0  0
   -2.0000    3.2930    0.0620 H   0  0  0  0  0  0  0  0  0  0  0  0
    2.2150    2.9890   -0.0360 H   0  0  0  0  0  0  0  0  0  0  0  0
    3.0380    5.5310    0.0230 Cl  0  0  0  0  0  0  0  0  0  0  0  0
   -0.5260    8.1610    0.1240 C   0  0  0  0  0  0  0  0  0  0  0  0
   -0.2210    9.5710    0.0230 C   0  0  0  0  0  0  0  0  0  0  0  0
   -1.5790    7.9070    0.1870 H   0  0  0  0  0  0  0  0  0  0  0  0
    1.4430    7.5800    0.0220 H   0  0  0  0  0  0  0  0  0  0  0  0
   -0.0650   10.7570   -0.1510 C   0  0  0  0  0  0  0  0  0  0  0  0
   -0.0120   12.2080   -0.5090 C   0  0  2  0  0  0  0  0  0  0  0  0
    1.2640   12.9460   -0.1330 C   0  0  0  0  0  0  0  0  0  0  0  0
    0.8290   14.2600    0.5010 C   0  0  2  0  0  0  0  0  0  0  0  0
   -0.6390   14.2110    0.6240 N   0  0  0  0  0  0  0  0  0  0  0  0
   -1.1250   12.9580    0.0870 N   0  0  0  0  0  0  0  0  0  0  0  0
    1.2790   15.5240   -0.2490 C   0  0  0  0  0  0  0  0  0  0  0  0
   -1.5610   12.4020    0.8280 H   0  0  0  0  0  0  0  0  0  0  0  0
   -1.0370   15.0280    0.1380 H   0  0  0  0  0  0  0  0  0  0  0  0
    1.8700   12.3780    0.5820 H   0  0  0  0  0  0  0  0  0  0  0  0
    1.2550   14.3570    1.5060 H   0  0  0  0  0  0  0  0  0  0  0  0
    1.8770   13.1140   -1.0270 H   0  0  0  0  0  0  0  0  0  0  0  0
   -0.1310   12.2710   -1.5980 H   0  0  0  0  0  0  0  0  0  0  0  0
    0.3490   16.5110   -0.2570 O   0  0  0  0  0  0  0  0  0  0  0  0
    2.3810   15.7300   -0.7320 O   0  0  0  0  0  0  0  0  0  0  0  0
    0.8090   17.2870   -0.6450 H   0  0  0  0  0  0  0  0  0  0  0  0
  1  5  1  0  0  0  0
  2  1  1  0  0  0  0
  3  2  2  0  0  0  0
  4  2  1  6  0  0  0
  4 10  5  0  0  0  0
  6  4  5  0  0  0  0
  6  7  5  0  0  0  0
  6 13  1  0  0  0  0
  7 12  1  0  0  0  0
  8  7  5  0  0  0  0
  8 11  1  6  0  0  0
  9  8  5  0  0  0  0
  9 15  1  6  0  0  0
 10  9  5  0  0  0  0
 10 14  1  0  0  0  0
 11 19  1  0  0  0  0
 16 11  2  0  0  0  0
 16 18  1  0  0  0  0
 17 16  1  0  0  0  0
 20 17  3  0  0  0  0
 21 20  1  0  0  0  0
 21 25  1  0  0  0  0
 21 32  1  6  0  0  0
 22 21  1  0  0  0  0
 22 29  1  0  0  0  0
 22 31  1  0  0  0  0
 23 22  1  0  0  0  0
 23 30  1  1  0  0  0
 24 23  1  0  0  0  0
 25 24  1  0  0  0  0
 26 23  1  0  0  0  0
 26 34  2  0  0  0  0
 27 25  1  0  0  0  0
 28 24  1  0  0  0  0
 33 26  1  0  0  0  0
 35 33  1  0  0  0  0
M  END
