
 OpenBabel11042013033D

 33 34  0  0  1  0  0  0  0  0999 V2000
    0.9440   -0.0340    0.7270 O   0  0  0  0  0  0  0  0  0  0  0  0
   -0.0650    0.3740   -0.0780 C   0  0  0  0  0  0  0  0  0  0  0  0
   -0.7820   -0.4520   -0.6210 O   0  0  0  0  0  0  0  0  0  0  0  0
   -0.1780    1.8470   -0.1650 C   0  0  2  0  0  0  0  0  0  0  0  0
    0.8750   -1.0090    0.6880 H   0  0  0  0  0  0  0  0  0  0  0  0
   -1.3810    2.4420   -0.0020 C   0  0  2  0  0  0  0  0  0  0  0  0
   -1.4770    3.7840   -0.0570 C   0  0  0  0  0  0  0  0  0  0  0  0
   -0.3930    4.5650   -0.2650 C   0  0  2  0  0  0  0  0  0  0  0  0
    0.7940    3.9550   -0.4680 C   0  0  0  0  0  0  0  0  0  0  0  0
    0.9170    2.6150   -0.4110 C   0  0  1  0  0  0  0  0  0  0  0  0
   -0.5710    5.9270   -0.1950 N   0  0  0  0  0  0  0  0  0  0  0  0
   -2.4400    4.2670    0.0980 H   0  0  0  0  0  0  0  0  0  0  0  0
   -2.8500    1.5690    0.3410 Cl  0  0  0  0  0  0  0  0  0  0  0  0
    2.2200    2.0650   -0.5960 N   0  0  0  0  0  0  0  0  0  0  0  0
    1.6740    4.5650   -0.6580 H   0  0  0  0  0  0  0  0  0  0  0  0
    0.4280    6.6730   -0.2570 N   0  0  0  0  0  0  0  0  0  0  0  0
    0.1800    8.0110    0.3150 C   0  0  1  0  0  0  0  0  0  0  0  0
    3.0010    2.7010   -0.4720 H   0  0  0  0  0  0  0  0  0  0  0  0
    2.3770    1.1870   -0.1000 H   0  0  0  0  0  0  0  0  0  0  0  0
    0.9470    9.1110   -0.2120 O   0  0  0  0  0  0  0  0  0  0  0  0
   -1.2020    9.9660    0.0820 C   0  0  0  0  0  0  0  0  0  0  0  0
   -1.2750    8.4620    0.2010 C   0  0  0  0  0  0  0  0  0  0  0  0
    0.6660   11.6060   -0.4140 C   0  0  0  0  0  0  0  0  0  0  0  0
   -1.8530    8.1400    1.0750 H   0  0  0  0  0  0  0  0  0  0  0  0
   -1.5670   10.2690   -0.9070 H   0  0  0  0  0  0  0  0  0  0  0  0
   -1.8190   10.4750    0.8280 H   0  0  0  0  0  0  0  0  0  0  0  0
   -1.7730    8.0540   -0.6860 H   0  0  0  0  0  0  0  0  0  0  0  0
    0.5190   10.3980    1.3120 H   0  0  0  0  0  0  0  0  0  0  0  0
    0.2740   10.2860    0.2480 C   0  0  2  0  0  0  0  0  0  0  0  0
    0.4500    7.9480    1.3790 H   0  0  0  0  0  0  0  0  0  0  0  0
   -0.2460   12.5820   -0.1890 O   0  0  0  0  0  0  0  0  0  0  0  0
    1.6980   11.8640   -1.0090 O   0  0  0  0  0  0  0  0  0  0  0  0
    0.1450   13.3740   -0.6140 H   0  0  0  0  0  0  0  0  0  0  0  0
  1  5  1  0  0  0  0
  2  1  1  0  0  0  0
  3  2  2  0  0  0  0
  4  2  1  6  0  0  0
  4 10  5  0  0  0  0
  6  4  5  0  0  0  0
  6  7  5  0  0  0  0
  6 13  1  1  0  0  0
  7 12  1  0  0  0  0
  8  7  5  0  0  0  0
  8 11  1  1  0  0  0
  9  8  5  0  0  0  0
  9 15  1  0  0  0  0
 10  9  5  0  0  0  0
 10 14  1  1  0  0  0
 14 18  1  0  0  0  0
 14 19  1  0  0  0  0
 16 11  2  0  0  0  0
 17 16  1  0  0  0  0
 17 22  1  0  0  0  0
 17 30  1  1  0  0  0
 20 17  1  0  0  0  0
 21 29  1  0  0  0  0
 21 26  1  0  0  0  0
 22 21  1  0  0  0  0
 22 27  1  0  0  0  0
 23 29  1  0  0  0  0
 23 32  2  0  0  0  0
 24 22  1  0  0  0  0
 25 21  1  0  0  0  0
 29 20  1  0  0  0  0
 29 28  1  1  0  0  0
 31 23  1  0  0  0  0
 33 31  1  0  0  0  0
M  END
