35

O          1.31200        0.79100       -0.07500
C          0.16900        1.50600       -0.08500
O         -0.91500        0.94800       -0.18400
C          0.31800        3.00000        0.02600
H          2.14400        1.27400        0.03300
C         -0.83800        3.70600        0.06000
C         -0.84400        5.05800        0.14100
C          0.33500        5.73000        0.19300
C          1.48700        5.02400        0.15900
C          1.48400        3.67800        0.07500
C          0.41200        7.16800        0.23100
Br        -2.52200        5.93100        0.15700
H         -1.78900        3.17500        0.01300
H          2.45000        3.18900        0.04000
H          2.44100        5.54700        0.18800
C          0.43800        8.37100        0.11400
C          0.32400        9.77200       -0.30100
C          1.44600       10.73800        0.03900
C          0.79400       12.05500       -0.41000
N         -0.63000       11.89300       -0.03800
N         -0.80800       10.47400        0.31200
C          1.41300       13.37100       -0.00900
H         -1.68900       10.10200       -0.05000
H         -0.83000       12.46600        0.78800
H          1.68800       10.74100        1.11000
H          0.83800       12.05700       -1.51000
H          2.36300       10.52100       -0.52100
H          0.17700        9.76300       -1.39500
C          0.72900       14.53200        0.02300
C          1.38300       15.83700        0.20600
H         -0.33700       14.57300       -0.17600
H          2.49100       13.39000        0.13200
O          0.46500       16.81700        0.14000
O          2.56900       16.06000        0.35000
H          0.98000       17.64700        0.21700
