
 OpenBabel11042013053D

 42 44  0  0  1  0  0  0  0  0999 V2000
    1.3800   -0.1150   -0.5030 O   0  0  0  0  0  0  0  0  0  0  0  0
    0.2000    0.5250   -0.4090 C   0  0  0  0  0  0  0  0  0  0  0  0
   -0.8670   -0.0760   -0.3720 O   0  0  0  0  0  0  0  0  0  0  0  0
    0.3030    2.0220   -0.3550 C   0  0  1  0  0  0  0  0  0  0  0  0
    2.1450    0.4560   -0.6830 H   0  0  0  0  0  0  0  0  0  0  0  0
   -0.7580    2.7090   -0.8040 C   0  0  0  0  0  0  0  0  0  0  0  0
   -0.8070    4.0470   -0.6690 C   0  0  0  0  0  0  0  0  0  0  0  0
    0.1860    4.7570   -0.0700 C   0  0  2  0  0  0  0  0  0  0  0  0
    1.2890    4.0540    0.3290 C   0  0  2  0  0  0  0  0  0  0  0  0
    1.3360    2.7020    0.1910 C   0  0  0  0  0  0  0  0  0  0  0  0
   -0.0650    6.2150    0.3890 C   0  0  1  0  0  0  0  0  0  0  0  0
   -1.7250    4.5150   -1.0070 H   0  0  0  0  0  0  0  0  0  0  0  0
   -1.6130    2.1850   -1.2350 H   0  0  0  0  0  0  0  0  0  0  0  0
    2.1930    2.1680    0.5820 H   0  0  0  0  0  0  0  0  0  0  0  0
    2.7750    4.8790    1.1580 Br  0  0  0  0  0  0  0  0  0  0  0  0
    0.6350    7.3410   -0.2270 O   0  0  0  0  0  0  0  0  0  0  0  0
   -1.4290    8.1760    0.5140 C   0  0  0  0  0  0  0  0  0  0  0  0
   -1.5210    6.6770    0.3780 C   0  0  0  0  0  0  0  0  0  0  0  0
    0.3280    9.9670    0.1060 C   0  0  1  0  0  0  0  0  0  0  0  0
   -2.1130    6.2120    1.1720 H   0  0  0  0  0  0  0  0  0  0  0  0
   -1.9110    8.5600    1.4160 H   0  0  0  0  0  0  0  0  0  0  0  0
   -1.9540    8.6040   -0.3460 H   0  0  0  0  0  0  0  0  0  0  0  0
   -2.0120    6.4720   -0.5790 H   0  0  0  0  0  0  0  0  0  0  0  0
    0.4660    8.3880    1.5120 H   0  0  0  0  0  0  0  0  0  0  0  0
    0.0710    8.4810    0.4890 C   0  0  2  0  0  0  0  0  0  0  0  0
    0.2350    6.2200    1.4490 H   0  0  0  0  0  0  0  0  0  0  0  0
    1.7420   10.4700   -0.1410 C   0  0  0  0  0  0  0  0  0  0  0  0
    1.5210   11.8240   -0.8440 C   0  0  1  0  0  0  0  0  0  0  0  0
    0.1070   11.8200   -1.2680 N   0  0  0  0  0  0  0  0  0  0  0  0
   -0.3730   10.4700   -1.0810 N   0  0  0  0  0  0  0  0  0  0  0  0
    1.8540   12.9630    0.0540 N   0  0  0  0  0  0  0  0  0  0  0  0
   -1.3870   10.4530   -0.9540 H   0  0  0  0  0  0  0  0  0  0  0  0
   -0.3620   12.4910   -0.6490 H   0  0  0  0  0  0  0  0  0  0  0  0
    2.3120   10.5650    0.7890 H   0  0  0  0  0  0  0  0  0  0  0  0
    2.1660   11.8950   -1.7270 H   0  0  0  0  0  0  0  0  0  0  0  0
    2.2780    9.7910   -0.8160 H   0  0  0  0  0  0  0  0  0  0  0  0
   -0.0630   10.5380    0.9650 H   0  0  0  0  0  0  0  0  0  0  0  0
    1.2750   14.0220   -0.2990 N   0  0  0  0  0  0  0  0  0  0  0  0
    1.7330   15.1530    0.3240 C   0  0  0  0  0  0  0  0  0  0  0  0
    0.8610   16.1760    0.1700 O   0  0  0  0  0  0  0  0  0  0  0  0
    2.7870   15.3460    0.9150 O   0  0  0  0  0  0  0  0  0  0  0  0
    1.3270   16.9300    0.5840 H   0  0  0  0  0  0  0  0  0  0  0  0
  1  5  1  0  0  0  0
  2  1  1  0  0  0  0
  3  2  2  0  0  0  0
  4  2  1  1  0  0  0
  4 10  5  0  0  0  0
  6  4  5  0  0  0  0
  6  7  5  0  0  0  0
  6 13  1  0  0  0  0
  7 12  1  0  0  0  0
  8  7  5  1  0  0  0
  8 11  1  0  0  0  0
  9  8  5  0  0  0  0
  9 15  1  1  0  0  0
 10  9  5  0  0  0  0
 10 14  1  0  0  0  0
 11 18  1  0  0  0  0
 11 26  1  1  0  0  0
 16 11  1  0  0  0  0
 17 25  1  0  0  0  0
 17 22  1  0  0  0  0
 18 17  1  0  0  0  0
 18 23  1  0  0  0  0
 19 25  1  0  0  0  0
 19 30  1  0  0  0  0
 19 37  1  1  0  0  0
 20 18  1  0  0  0  0
 21 17  1  0  0  0  0
 25 16  1  0  0  0  0
 25 24  1  1  0  0  0
 27 19  1  0  0  0  0
 27 34  1  0  0  0  0
 27 36  1  0  0  0  0
 28 27  1  0  0  0  0
 28 35  1  6  0  0  0
 29 28  1  0  0  0  0
 30 29  1  0  0  0  0
 31 28  1  0  0  0  0
 32 30  1  0  0  0  0
 33 29  1  0  0  0  0
 38 31  2  0  0  0  0
 39 38  1  0  0  0  0
 39 41  2  0  0  0  0
 40 39  1  0  0  0  0
 42 40  1  0  0  0  0
M  END
