29

O          0.16000        0.37900        0.46500
C         -0.95900        1.12200        0.30000
O         -2.01900        0.52500        0.19500
C         -0.77700        2.63800        0.23600
H          0.95400        0.91300        0.65400
C         -1.84300        3.48800        0.09900
C         -1.66500        4.85300        0.05900
C         -0.39900        5.37300        0.09700
C          0.63300        4.50400        0.23100
C          0.47200        3.17000        0.31100
C          0.00700        6.80100        0.02500
C         -2.86100        5.79300        0.01100
Br        -3.63900        2.81000       -0.05200
C          2.63000        2.48200       -0.44400
H          1.64900        4.89100        0.30700
C         -0.72400        7.92400       -0.08200
C         -0.09500        9.25400       -0.07800
H         -1.79500        7.97000       -0.15000
H          1.08800        6.96300        0.06300
H          3.21900        1.56100       -0.40000
H          2.22800        2.58100       -1.45700
H          3.28700        3.31800       -0.19200
O          1.58400        2.35600        0.52300
H         -3.84300        5.33700        0.11200
H         -2.88600        6.33600       -0.93900
H         -2.82000        6.47800        0.86600
O         -1.05400       10.19800       -0.06000
O          1.08900        9.51600       -0.07200
H         -0.56900       11.04800       -0.02500
