
 OpenBabel11042013053D

 23 23  0  0  1  0  0  0  0  0999 V2000
    1.4350    0.0750   -0.1390 O   0  0  0  0  0  0  0  0  0  0  0  0
    0.2610    0.7160   -0.2990 C   0  0  0  0  0  0  0  0  0  0  0  0
   -0.7630    0.1150   -0.5870 O   0  0  0  0  0  0  0  0  0  0  0  0
    0.2990    2.1960   -0.0760 C   0  0  2  0  0  0  0  0  0  0  0  0
    2.1720    0.5740    0.2500 H   0  0  0  0  0  0  0  0  0  0  0  0
   -0.8810    2.8070    0.1610 C   0  0  0  0  0  0  0  0  0  0  0  0
   -0.9510    4.1400    0.3770 C   0  0  2  0  0  0  0  0  0  0  0  0
    0.1830    4.8960    0.3580 C   0  0  2  0  0  0  0  0  0  0  0  0
    1.3660    4.2730    0.1090 C   0  0  2  0  0  0  0  0  0  0  0  0
    1.4210    2.9410   -0.1160 C   0  0  0  0  0  0  0  0  0  0  0  0
    0.1700    6.2480    0.6380 N   0  0  0  0  0  0  0  0  0  0  0  0
   -2.6520    4.8920    0.7170 Br  0  0  0  0  0  0  0  0  0  0  0  0
   -1.7970    2.2150    0.1810 H   0  0  0  0  0  0  0  0  0  0  0  0
    2.3880    2.4950   -0.3360 H   0  0  0  0  0  0  0  0  0  0  0  0
    2.5910    5.0150    0.0890 C   0  0  0  0  0  0  0  0  0  0  0  0
    3.6100    5.5640    0.0710 N   0  0  0  0  0  0  0  0  0  0  0  0
   -0.0900    6.9970   -0.3270 N   0  0  0  0  0  0  0  0  0  0  0  0
    0.1370    8.3060    0.0710 N   0  0  0  0  0  0  0  0  0  0  0  0
   -0.6470    9.0790   -0.5110 N   0  0  0  0  0  0  0  0  0  0  0  0
   -0.3880   10.3720   -0.1460 C   0  0  0  0  0  0  0  0  0  0  0  0
   -1.5030   11.1330   -0.1860 O   0  0  0  0  0  0  0  0  0  0  0  0
    0.6740   10.8860    0.1790 O   0  0  0  0  0  0  0  0  0  0  0  0
   -1.1700   12.0080    0.0960 H   0  0  0  0  0  0  0  0  0  0  0  0
  1  5  1  0  0  0  0
  2  1  1  0  0  0  0
  3  2  2  0  0  0  0
  4  2  1  6  0  0  0
  4 10  5  0  0  0  0
  6  4  5  0  0  0  0
  6  7  5  0  0  0  0
  6 13  1  0  0  0  0
  7 12  1  1  0  0  0
  8  7  5  0  0  0  0
  8 11  1  1  0  0  0
  9  8  5  0  0  0  0
  9 15  1  1  0  0  0
 10  9  5  0  0  0  0
 10 14  1  0  0  0  0
 15 16  3  0  0  0  0
 17 11  2  0  0  0  0
 18 17  1  0  0  0  0
 19 18  2  0  0  0  0
 20 19  1  0  0  0  0
 20 22  2  0  0  0  0
 21 20  1  0  0  0  0
 23 21  1  0  0  0  0
M  END
