
 OpenBabel11042013053D

 31 31  0  0  1  0  0  0  0  0999 V2000
    0.9200    0.7050    0.7940 O   0  0  0  0  0  0  0  0  0  0  0  0
    0.2870    1.2840   -0.2360 C   0  0  0  0  0  0  0  0  0  0  0  0
   -0.1610    0.6170   -1.1550 O   0  0  0  0  0  0  0  0  0  0  0  0
    0.1840    2.7600   -0.0960 C   0  0  2  0  0  0  0  0  0  0  0  0
    0.9700   -0.2400    0.5310 H   0  0  0  0  0  0  0  0  0  0  0  0
   -1.0810    3.3060    0.0040 C   0  0  2  0  0  0  0  0  0  0  0  0
   -1.1740    4.6720    0.0830 C   0  0  2  0  0  0  0  0  0  0  0  0
   -0.0510    5.4250    0.0070 C   0  0  2  0  0  0  0  0  0  0  0  0
    1.1560    4.8570   -0.0560 C   0  0  1  0  0  0  0  0  0  0  0  0
    1.3210    3.5140   -0.0890 C   0  0  2  0  0  0  0  0  0  0  0  0
   -0.0660    6.9060    0.0280 C   0  0  0  0  0  0  0  0  0  0  0  0
   -2.4170    5.3660    0.2660 C   0  0  0  0  0  0  0  0  0  0  0  0
   -2.2970    2.3440    0.0380 C   0  0  0  0  0  0  0  0  0  0  0  0
    2.8040    3.1120   -0.1210 C   0  0  0  0  0  0  0  0  0  0  0  0
    2.2500    5.6490   -0.1060 F   0  0  0  0  0  0  0  0  0  0  0  0
   -3.3950    5.9680    0.4570 N   0  0  0  0  0  0  0  0  0  0  0  0
    3.3420    1.7210   -0.4260 C   0  0  0  0  0  0  0  0  0  0  0  0
    2.8750    1.2720   -1.3040 H   0  0  0  0  0  0  0  0  0  0  0  0
    4.4190    1.7980   -0.6270 H   0  0  0  0  0  0  0  0  0  0  0  0
    3.2540    1.0540    0.4350 H   0  0  0  0  0  0  0  0  0  0  0  0
    3.2990    3.7610   -0.8580 H   0  0  0  0  0  0  0  0  0  0  0  0
    3.2220    3.3940    0.8580 H   0  0  0  0  0  0  0  0  0  0  0  0
   -3.7370    2.8240    0.2240 C   0  0  0  0  0  0  0  0  0  0  0  0
   -3.8790    3.3210    1.1890 H   0  0  0  0  0  0  0  0  0  0  0  0
   -4.4200    1.9670    0.2090 H   0  0  0  0  0  0  0  0  0  0  0  0
   -4.0510    3.4840   -0.5910 H   0  0  0  0  0  0  0  0  0  0  0  0
   -2.1240    1.6170    0.8440 H   0  0  0  0  0  0  0  0  0  0  0  0
   -2.3100    1.7900   -0.9090 H   0  0  0  0  0  0  0  0  0  0  0  0
   -0.9190    7.4110   -0.8830 O   0  0  0  0  0  0  0  0  0  0  0  0
    0.6210    7.6320    0.7240 O   0  0  0  0  0  0  0  0  0  0  0  0
   -0.8730    8.3820   -0.7520 H   0  0  0  0  0  0  0  0  0  0  0  0
  1  5  1  0  0  0  0
  2  1  1  0  0  0  0
  3  2  2  0  0  0  0
  4  2  1  6  0  0  0
  4 10  5  0  0  0  0
  6  4  5  0  0  0  0
  6  7  5  0  0  0  0
  6 13  1  1  0  0  0
  7 12  1  1  0  0  0
  8  7  5  0  0  0  0
  8 11  1  1  0  0  0
  9  8  5  0  0  0  0
  9 15  1  6  0  0  0
 10  9  5  0  0  0  0
 10 14  1  6  0  0  0
 11 30  2  0  0  0  0
 12 16  3  0  0  0  0
 13 27  1  0  0  0  0
 13 28  1  0  0  0  0
 14 21  1  0  0  0  0
 14 22  1  0  0  0  0
 17 18  1  0  0  0  0
 17 19  1  0  0  0  0
 17 20  1  0  0  0  0
 17 14  1  0  0  0  0
 23 24  1  0  0  0  0
 23 25  1  0  0  0  0
 23 26  1  0  0  0  0
 23 13  1  0  0  0  0
 29 11  1  0  0  0  0
 31 29  1  0  0  0  0
M  END
