
 OpenBabel11042013053D

 43 45  0  0  1  0  0  0  0  0999 V2000
    1.7070   -0.3160   -0.2840 O   0  0  0  0  0  0  0  0  0  0  0  0
    0.4680    0.1930   -0.4430 C   0  0  0  0  0  0  0  0  0  0  0  0
   -0.4930   -0.5450   -0.6140 O   0  0  0  0  0  0  0  0  0  0  0  0
    0.3610    1.6890   -0.3470 C   0  0  1  0  0  0  0  0  0  0  0  0
    2.3980    0.3170   -0.0270 H   0  0  0  0  0  0  0  0  0  0  0  0
   -0.8920    2.1660   -0.2740 C   0  0  0  0  0  0  0  0  0  0  0  0
   -1.1660    3.4830   -0.1230 C   0  0  2  0  0  0  0  0  0  0  0  0
   -0.1330    4.4030   -0.0410 C   0  0  2  0  0  0  0  0  0  0  0  0
    1.1430    3.9160   -0.1540 C   0  0  2  0  0  0  0  0  0  0  0  0
    1.3660    2.5790   -0.3090 C   0  0  0  0  0  0  0  0  0  0  0  0
   -0.3840    5.9110    0.3140 C   0  0  1  0  0  0  0  0  0  0  0  0
   -2.6450    3.7640    0.0070 C   0  0  0  0  0  0  0  0  0  0  0  0
   -1.7150    1.4570   -0.3040 H   0  0  0  0  0  0  0  0  0  0  0  0
    2.3920    2.2450   -0.3840 H   0  0  0  0  0  0  0  0  0  0  0  0
    2.3940    4.7600   -0.0300 C   0  0  0  0  0  0  0  0  0  0  0  0
   -3.2590    2.8570   -0.0610 H   0  0  0  0  0  0  0  0  0  0  0  0
   -3.0050    4.4060   -0.7980 H   0  0  0  0  0  0  0  0  0  0  0  0
   -2.8780    4.1790    0.9910 H   0  0  0  0  0  0  0  0  0  0  0  0
    2.2480    5.6690    0.5530 H   0  0  0  0  0  0  0  0  0  0  0  0
    2.7750    5.0200   -1.0230 H   0  0  0  0  0  0  0  0  0  0  0  0
    3.1830    4.2090    0.5010 H   0  0  0  0  0  0  0  0  0  0  0  0
    0.4480    6.9810   -0.2910 O   0  0  0  0  0  0  0  0  0  0  0  0
   -1.5740    7.9920    0.3260 C   0  0  0  0  0  0  0  0  0  0  0  0
   -1.7730    6.5120    0.1460 C   0  0  0  0  0  0  0  0  0  0  0  0
    0.2950    9.6260    0.0590 C   0  0  1  0  0  0  0  0  0  0  0  0
   -2.4980    6.1610    0.8780 H   0  0  0  0  0  0  0  0  0  0  0  0
   -2.0460    8.3790    1.2340 H   0  0  0  0  0  0  0  0  0  0  0  0
   -2.0420    8.4970   -0.5260 H   0  0  0  0  0  0  0  0  0  0  0  0
   -2.1480    6.3370   -0.8690 H   0  0  0  0  0  0  0  0  0  0  0  0
    0.2800    8.0430    1.4120 H   0  0  0  0  0  0  0  0  0  0  0  0
   -0.0610    8.1700    0.3730 C   0  0  2  0  0  0  0  0  0  0  0  0
   -0.1450    5.9350    1.3900 H   0  0  0  0  0  0  0  0  0  0  0  0
    1.6660   10.1470   -0.2490 C   0  0  0  0  0  0  0  0  0  0  0  0
    1.2390   11.4620   -0.7240 N   0  0  0  0  0  0  0  0  0  0  0  0
   -0.0110   11.3850   -1.2910 N   0  0  0  0  0  0  0  0  0  0  0  0
   -0.4910   10.2440   -1.0430 N   0  0  0  0  0  0  0  0  0  0  0  0
    1.6890   12.6540   -0.2080 C   0  0  0  0  0  0  0  0  0  0  0  0
    2.3330   10.2180    0.6130 H   0  0  0  0  0  0  0  0  0  0  0  0
    2.1520    9.6370   -1.0860 H   0  0  0  0  0  0  0  0  0  0  0  0
   -0.0390   10.1610    0.9660 H   0  0  0  0  0  0  0  0  0  0  0  0
    0.8860   13.7110   -0.4690 O   0  0  0  0  0  0  0  0  0  0  0  0
    2.6800   12.8160    0.4910 O   0  0  0  0  0  0  0  0  0  0  0  0
    1.2970   14.4550    0.0160 H   0  0  0  0  0  0  0  0  0  0  0  0
  1  5  1  0  0  0  0
  2  1  1  0  0  0  0
  3  2  2  0  0  0  0
  4  2  1  1  0  0  0
  4 10  5  0  0  0  0
  6  4  5  0  0  0  0
  6  7  5  0  0  0  0
  6 13  1  0  0  0  0
  7 12  1  1  0  0  0
  8  7  5  0  0  0  0
  8 11  1  1  0  0  0
  9  8  5  0  0  0  0
  9 15  1  1  0  0  0
 10  9  5  0  0  0  0
 10 14  1  0  0  0  0
 11 24  1  0  0  0  0
 11 32  1  1  0  0  0
 12 16  1  0  0  0  0
 12 17  1  0  0  0  0
 12 18  1  0  0  0  0
 15 19  1  0  0  0  0
 15 20  1  0  0  0  0
 15 21  1  0  0  0  0
 22 11  1  0  0  0  0
 23 31  1  0  0  0  0
 23 28  1  0  0  0  0
 24 23  1  0  0  0  0
 24 29  1  0  0  0  0
 25 31  1  0  0  0  0
 25 36  1  0  0  0  0
 25 40  1  1  0  0  0
 26 24  1  0  0  0  0
 27 23  1  0  0  0  0
 31 22  1  0  0  0  0
 31 30  1  1  0  0  0
 33 25  1  0  0  0  0
 33 38  1  0  0  0  0
 33 39  1  0  0  0  0
 34 33  1  0  0  0  0
 35 34  1  0  0  0  0
 36 35  2  0  0  0  0
 37 34  1  0  0  0  0
 37 42  2  0  0  0  0
 41 37  1  0  0  0  0
 43 41  1  0  0  0  0
M  END
