32

O          0.61300       -0.06200       -0.11000
C         -0.62100        0.48900       -0.10100
O         -1.62500       -0.18700       -0.27000
C         -0.63700        1.98500        0.02100
H          1.28100        0.59600        0.19200
C         -1.80800        2.57800       -0.27000
C         -1.94300        3.92000       -0.26900
C         -0.87600        4.72600        0.02300
C          0.30500        4.11700        0.36700
C          0.40900        2.75800        0.37700
C         -1.02000        6.24300       -0.16200
Br        -3.66600        4.57400       -0.72400
H         -2.66700        1.95800       -0.53000
N          1.66300        2.13200        0.77600
C          2.48700        4.94500       -0.13800
H          1.96600        2.61900        1.63500
H          2.40800        2.45800        0.15100
C          0.15100        7.19300       -0.11500
N         -0.56100        8.40900        0.14200
N         -1.73600        8.16700        0.78900
N         -1.95100        6.91500        0.78700
C         -0.03400        9.65000       -0.07200
H          0.72900        7.24100       -1.04100
H          0.81400        7.07400        0.74700
H         -1.45000        6.37700       -1.16800
H          2.79500        5.98800       -0.24800
H          2.24000        4.54400       -1.12600
H          3.33100        4.40100        0.29500
O          1.38700        4.89500        0.77400
O         -0.84600       10.66900        0.27100
O          1.06600        9.88800       -0.55200
H         -0.32600       11.46200        0.03300
