
 OpenBabel11042013053D

 32 33  0  0  1  0  0  0  0  0999 V2000
    0.6130   -0.0620   -0.1100 O   0  0  0  0  0  0  0  0  0  0  0  0
   -0.6210    0.4890   -0.1010 C   0  0  0  0  0  0  0  0  0  0  0  0
   -1.6250   -0.1870   -0.2700 O   0  0  0  0  0  0  0  0  0  0  0  0
   -0.6370    1.9850    0.0210 C   0  0  2  0  0  0  0  0  0  0  0  0
    1.2810    0.5960    0.1920 H   0  0  0  0  0  0  0  0  0  0  0  0
   -1.8080    2.5780   -0.2700 C   0  0  0  0  0  0  0  0  0  0  0  0
   -1.9430    3.9200   -0.2690 C   0  0  1  0  0  0  0  0  0  0  0  0
   -0.8760    4.7260    0.0230 C   0  0  1  0  0  0  0  0  0  0  0  0
    0.3050    4.1170    0.3670 C   0  0  2  0  0  0  0  0  0  0  0  0
    0.4090    2.7580    0.3770 C   0  0  2  0  0  0  0  0  0  0  0  0
   -1.0200    6.2430   -0.1620 C   0  0  2  0  0  0  0  0  0  0  0  0
   -3.6660    4.5740   -0.7240 Br  0  0  0  0  0  0  0  0  0  0  0  0
   -2.6670    1.9580   -0.5300 H   0  0  0  0  0  0  0  0  0  0  0  0
    1.6630    2.1320    0.7760 N   0  0  0  0  0  0  0  0  0  0  0  0
    2.4870    4.9450   -0.1380 C   0  0  0  0  0  0  0  0  0  0  0  0
    1.9660    2.6190    1.6350 H   0  0  0  0  0  0  0  0  0  0  0  0
    2.4080    2.4580    0.1510 H   0  0  0  0  0  0  0  0  0  0  0  0
    0.1510    7.1930   -0.1150 C   0  0  0  0  0  0  0  0  0  0  0  0
   -0.5610    8.4090    0.1420 N   0  0  0  0  0  0  0  0  0  0  0  0
   -1.7360    8.1670    0.7890 N   0  0  0  0  0  0  0  0  0  0  0  0
   -1.9510    6.9150    0.7870 N   0  0  0  0  0  0  0  0  0  0  0  0
   -0.0340    9.6500   -0.0720 C   0  0  0  0  0  0  0  0  0  0  0  0
    0.7290    7.2410   -1.0410 H   0  0  0  0  0  0  0  0  0  0  0  0
    0.8140    7.0740    0.7470 H   0  0  0  0  0  0  0  0  0  0  0  0
   -1.4500    6.3770   -1.1680 H   0  0  0  0  0  0  0  0  0  0  0  0
    2.7950    5.9880   -0.2480 H   0  0  0  0  0  0  0  0  0  0  0  0
    2.2400    4.5440   -1.1260 H   0  0  0  0  0  0  0  0  0  0  0  0
    3.3310    4.4010    0.2950 H   0  0  0  0  0  0  0  0  0  0  0  0
    1.3870    4.8950    0.7740 O   0  0  0  0  0  0  0  0  0  0  0  0
   -0.8460   10.6690    0.2710 O   0  0  0  0  0  0  0  0  0  0  0  0
    1.0660    9.8880   -0.5520 O   0  0  0  0  0  0  0  0  0  0  0  0
   -0.3260   11.4620    0.0330 H   0  0  0  0  0  0  0  0  0  0  0  0
  1  5  1  0  0  0  0
  2  1  1  0  0  0  0
  3  2  2  0  0  0  0
  4  2  1  6  0  0  0
  4 10  5  0  0  0  0
  6  4  5  0  0  0  0
  6  7  5  0  0  0  0
  6 13  1  0  0  0  0
  7 12  1  6  0  0  0
  8  7  5  0  0  0  0
  8 11  1  6  0  0  0
  9  8  5  0  0  0  0
  9 29  1  1  0  0  0
 10  9  5  0  0  0  0
 10 14  1  6  0  0  0
 11 21  1  0  0  0  0
 11 25  1  6  0  0  0
 14 16  1  0  0  0  0
 14 17  1  0  0  0  0
 15 26  1  0  0  0  0
 15 27  1  0  0  0  0
 15 28  1  0  0  0  0
 15 29  1  0  0  0  0
 18 11  1  0  0  0  0
 18 23  1  0  0  0  0
 18 24  1  0  0  0  0
 19 18  1  0  0  0  0
 20 19  1  0  0  0  0
 21 20  2  0  0  0  0
 22 19  1  0  0  0  0
 22 31  2  0  0  0  0
 30 22  1  0  0  0  0
 32 30  1  0  0  0  0
M  END
