
 OpenBabel11042013053D

 24 24  0  0  1  0  0  0  0  0999 V2000
    1.4080    0.4920    0.5230 O   0  0  0  0  0  0  0  0  0  0  0  0
    0.3930    1.0650   -0.1430 C   0  0  0  0  0  0  0  0  0  0  0  0
   -0.4440    0.3540   -0.6840 O   0  0  0  0  0  0  0  0  0  0  0  0
    0.3540    2.5560   -0.0710 C   0  0  2  0  0  0  0  0  0  0  0  0
    1.3090   -0.4630    0.3270 H   0  0  0  0  0  0  0  0  0  0  0  0
   -0.8860    3.1140   -0.0670 C   0  0  2  0  0  0  0  0  0  0  0  0
   -1.0180    4.4470   -0.1240 C   0  0  1  0  0  0  0  0  0  0  0  0
    0.0650    5.2540   -0.0920 C   0  0  1  0  0  0  0  0  0  0  0  0
    1.3150    4.7080   -0.0040 C   0  0  2  0  0  0  0  0  0  0  0  0
    1.4660    3.3450   -0.0360 C   0  0  2  0  0  0  0  0  0  0  0  0
   -0.1100    6.7340   -0.2110 C   0  0  0  0  0  0  0  0  0  0  0  0
   -2.3590    4.9600   -0.2200 N   0  0  0  0  0  0  0  0  0  0  0  0
   -2.0660    2.3610    0.0130 O   0  0  0  0  0  0  0  0  0  0  0  0
    2.8590    2.7210   -0.0720 C   0  0  0  0  0  0  0  0  0  0  0  0
    2.8500    5.8310    0.2080 Br  0  0  0  0  0  0  0  0  0  0  0  0
   -1.9230    1.4340    0.2810 H   0  0  0  0  0  0  0  0  0  0  0  0
    2.8940    1.8400   -0.7240 H   0  0  0  0  0  0  0  0  0  0  0  0
    3.6210    3.3730   -0.5040 H   0  0  0  0  0  0  0  0  0  0  0  0
    3.1790    2.4430    0.9370 H   0  0  0  0  0  0  0  0  0  0  0  0
   -2.5040    5.8660    0.2270 H   0  0  0  0  0  0  0  0  0  0  0  0
   -3.0660    4.2750    0.0410 H   0  0  0  0  0  0  0  0  0  0  0  0
   -1.1500    7.2270    0.4990 O   0  0  0  0  0  0  0  0  0  0  0  0
    0.5550    7.4950   -0.8870 O   0  0  0  0  0  0  0  0  0  0  0  0
   -1.1580    8.1690    0.2260 H   0  0  0  0  0  0  0  0  0  0  0  0
  1  5  1  0  0  0  0
  2  1  1  0  0  0  0
  3  2  2  0  0  0  0
  4  2  1  6  0  0  0
  4 10  5  0  0  0  0
  6  4  5  0  0  0  0
  6  7  5  0  0  0  0
  6 13  1  1  0  0  0
  7 12  1  6  0  0  0
  8  7  5  0  0  0  0
  8 11  1  6  0  0  0
  9  8  5  0  0  0  0
  9 15  1  1  0  0  0
 10  9  5  0  0  0  0
 10 14  1  6  0  0  0
 11 23  2  0  0  0  0
 12 20  1  0  0  0  0
 12 21  1  0  0  0  0
 13 16  1  0  0  0  0
 14 17  1  0  0  0  0
 14 18  1  0  0  0  0
 14 19  1  0  0  0  0
 22 11  1  0  0  0  0
 24 22  1  0  0  0  0
M  END
