24

O          1.40800        0.49200        0.52300
C          0.39300        1.06500       -0.14300
O         -0.44400        0.35400       -0.68400
C          0.35400        2.55600       -0.07100
H          1.30900       -0.46300        0.32700
C         -0.88600        3.11400       -0.06700
C         -1.01800        4.44700       -0.12400
C          0.06500        5.25400       -0.09200
C          1.31500        4.70800       -0.00400
C          1.46600        3.34500       -0.03600
C         -0.11000        6.73400       -0.21100
N         -2.35900        4.96000       -0.22000
O         -2.06600        2.36100        0.01300
C          2.85900        2.72100       -0.07200
Br         2.85000        5.83100        0.20800
H         -1.92300        1.43400        0.28100
H          2.89400        1.84000       -0.72400
H          3.62100        3.37300       -0.50400
H          3.17900        2.44300        0.93700
H         -2.50400        5.86600        0.22700
H         -3.06600        4.27500        0.04100
O         -1.15000        7.22700        0.49900
O          0.55500        7.49500       -0.88700
H         -1.15800        8.16900        0.22600
