38

O          1.67500        0.13600        0.13400
C          0.43700        0.68600        0.10500
O         -0.51400       -0.07800        0.10300
C          0.35100        2.20900        0.06700
H          2.46100        0.69100        0.04400
C         -0.82700        2.89600       -0.11300
C         -0.84000        4.27600       -0.19600
C          0.34700        4.94600       -0.03500
C          1.48800        4.25500        0.15300
C          1.49300        2.91900        0.19900
C          0.52900        6.39800       -0.13800
C         -2.10100        5.11100       -0.56400
Br        -2.46300        1.93200       -0.31000
H          2.47000        2.47800        0.34200
H          2.44000        4.77800        0.25500
C         -0.06800        7.32000        0.63500
C         -0.00800        8.74900        0.38600
H         -0.74900        7.00900        1.42700
H          1.20500        6.72000       -0.93000
C         -3.48700        4.86200        0.03000
H         -3.44800        4.56000        1.07900
H         -4.04900        4.13000       -0.55600
H         -4.08100        5.78200       -0.03100
H         -2.18200        5.10100       -1.65900
H         -1.93900        6.16100       -0.32400
C         -1.16600        9.43200        0.23900
C         -1.16500       10.76000        0.02000
C          0.00200       11.42700       -0.04900
C          1.16900       10.75700        0.08600
C          1.16100        9.42500        0.30100
C          0.05800       12.90400       -0.25200
H         -2.11300       11.27500       -0.09800
H         -2.12200        8.91400        0.28700
H          2.10900        8.90500        0.41300
H          2.11900       11.28000        0.02800
O         -1.15600       13.48500       -0.21400
O          1.06500       13.56800       -0.39700
H         -0.95700       14.43800       -0.30900
