
 OpenBabel11042013033D

 26 26  0  0  1  0  0  0  0  0999 V2000
    1.4150    0.3580    0.0000 O   0  0  0  0  0  0  0  0  0  0  0  0
    0.1950    0.9390    0.0000 C   0  0  0  0  0  0  0  0  0  0  0  0
   -0.8060    0.2370    0.0000 O   0  0  0  0  0  0  0  0  0  0  0  0
    0.1720    2.4360    0.0000 C   0  0  1  0  0  0  0  0  0  0  0  0
    2.1970    0.9270    0.0000 H   0  0  0  0  0  0  0  0  0  0  0  0
   -1.0500    3.0220    0.0000 C   0  0  1  0  0  0  0  0  0  0  0  0
   -1.1860    4.3580    0.0000 C   0  0  0  0  0  0  0  0  0  0  0  0
   -0.0960    5.1430    0.0000 C   0  0  1  0  0  0  0  0  0  0  0  0
    1.1280    4.5780    0.0000 C   0  0  0  0  0  0  0  0  0  0  0  0
    1.2680    3.2360    0.0000 C   0  0  0  0  0  0  0  0  0  0  0  0
   -0.2110    6.5540   -0.0000 C   0  0  0  0  0  0  0  0  0  0  0  0
   -2.1860    4.7870    0.0000 H   0  0  0  0  0  0  0  0  0  0  0  0
   -2.1870    2.2940   -0.0000 F   0  0  0  0  0  0  0  0  0  0  0  0
    2.2830    2.8530    0.0000 H   0  0  0  0  0  0  0  0  0  0  0  0
    2.0210    5.2050   -0.0000 H   0  0  0  0  0  0  0  0  0  0  0  0
   -0.0910    7.7500   -0.0000 C   0  0  0  0  0  0  0  0  0  0  0  0
    0.3800    9.0800    0.0000 C   0  0  0  0  0  0  0  0  0  0  0  0
   -0.3950   10.1660    0.0000 C   0  0  0  0  0  0  0  0  0  0  0  0
    0.1410   11.4280    0.0000 N   0  0  0  0  0  0  0  0  0  0  0  0
   -1.4800   10.0810    0.0000 H   0  0  0  0  0  0  0  0  0  0  0  0
    1.4590    9.1920    0.0000 H   0  0  0  0  0  0  0  0  0  0  0  0
   -0.7280   12.3180    0.0000 N   0  0  0  0  0  0  0  0  0  0  0  0
   -0.2290   13.5900   -0.0000 C   0  0  0  0  0  0  0  0  0  0  0  0
   -1.2460   14.4720    0.0000 O   0  0  0  0  0  0  0  0  0  0  0  0
    0.9260   13.9890    0.0000 O   0  0  0  0  0  0  0  0  0  0  0  0
   -0.8100   15.3450   -0.0000 H   0  0  0  0  0  0  0  0  0  0  0  0
  1  5  1  0  0  0  0
  2  1  1  0  0  0  0
  3  2  2  0  0  0  0
  4  2  1  1  0  0  0
  4 10  5  0  0  0  0
  6  4  5  0  0  0  0
  6  7  5  0  0  0  0
  6 13  1  6  0  0  0
  7 12  1  0  0  0  0
  8  7  5  0  0  0  0
  8 11  1  6  0  0  0
  9  8  5  0  0  0  0
  9 15  1  0  0  0  0
 10  9  5  0  0  0  0
 10 14  1  0  0  0  0
 16 11  3  0  0  0  0
 17 16  1  0  0  0  0
 17 21  1  0  0  0  0
 18 17  2  0  0  0  0
 18 20  1  0  0  0  0
 19 18  1  0  0  0  0
 22 19  2  0  0  0  0
 23 22  1  0  0  0  0
 23 25  2  0  0  0  0
 24 23  1  0  0  0  0
 26 24  1  0  0  0  0
M  END
