37

O          1.23100       -0.97700        0.02100
C          0.10400       -0.30800       -0.28500
O         -0.93800       -0.92900       -0.45800
C          0.14900        1.19500       -0.28500
H          2.07000       -0.53000        0.23400
C         -1.07600        1.77300       -0.21900
C         -1.20800        3.09800       -0.03800
C         -0.11800        3.88800        0.09700
C          1.09500        3.33300       -0.11100
C          1.23700        2.00200       -0.30000
C         -0.22600        5.30900        0.59900
H         -2.21400        3.50100        0.07300
H         -1.98800        1.17500       -0.25100
C          2.56200        1.50800       -0.42400
H          1.98500        3.95900       -0.05200
N          3.61200        1.02100       -0.44000
C          0.65700        6.40500        0.03900
N         -0.22700        7.52400        0.23400
N         -1.52900        7.11200        0.34900
N         -1.58100        5.86700        0.44400
C          0.03900        8.87100        0.09400
H          1.59600        6.50600        0.59200
H          0.85000        6.30200       -1.03500
H         -0.04100        5.25000        1.68200
C         -0.99900        9.72600       -0.03500
C         -0.81800       11.04300       -0.16200
C          0.42600       11.55800       -0.14300
C          1.48200       10.72700       -0.02700
C          1.28900        9.38800        0.08700
C          0.60400       13.02300       -0.25700
H         -1.69900       11.67000       -0.28000
H         -2.02500        9.36300       -0.03900
H          2.16900        8.76700        0.19400
F          2.74400       11.19500       -0.01100
O         -0.55900       13.69200       -0.08600
O          1.63700       13.63400       -0.45800
H         -0.31500       14.63700       -0.15400
