
 OpenBabel11042013053D

 43 45  0  0  1  0  0  0  0  0999 V2000
    1.1850   -0.8800    0.2020 O   0  0  0  0  0  0  0  0  0  0  0  0
    0.0170   -0.2230    0.3410 C   0  0  0  0  0  0  0  0  0  0  0  0
   -1.0370   -0.8320    0.4710 O   0  0  0  0  0  0  0  0  0  0  0  0
    0.0990    1.2730    0.2990 C   0  0  2  0  0  0  0  0  0  0  0  0
    1.9920   -0.3410    0.2130 H   0  0  0  0  0  0  0  0  0  0  0  0
   -1.0280    1.9310    0.6300 C   0  0  0  0  0  0  0  0  0  0  0  0
   -1.0870    3.2700    0.5390 C   0  0  0  0  0  0  0  0  0  0  0  0
   -0.0340    4.0140    0.1110 C   0  0  1  0  0  0  0  0  0  0  0  0
    1.1170    3.3460   -0.1890 C   0  0  1  0  0  0  0  0  0  0  0  0
    1.1720    1.9940   -0.0930 C   0  0  0  0  0  0  0  0  0  0  0  0
   -0.2210    5.4880   -0.2570 C   0  0  2  0  0  0  0  0  0  0  0  0
   -2.0510    3.7180    0.7680 H   0  0  0  0  0  0  0  0  0  0  0  0
   -1.9240    1.3880    0.9320 H   0  0  0  0  0  0  0  0  0  0  0  0
    2.0920    1.5080   -0.3950 H   0  0  0  0  0  0  0  0  0  0  0  0
    2.6670    4.2230   -0.8330 Br  0  0  0  0  0  0  0  0  0  0  0  0
    0.5180    6.5260    0.4610 O   0  0  0  0  0  0  0  0  0  0  0  0
   -1.4680    7.4950   -0.3170 C   0  0  0  0  0  0  0  0  0  0  0  0
   -1.6500    6.0070   -0.2350 C   0  0  0  0  0  0  0  0  0  0  0  0
    0.4560    9.1390    0.2000 C   0  0  2  0  0  0  0  0  0  0  0  0
   -2.2660    5.6110   -1.0470 H   0  0  0  0  0  0  0  0  0  0  0  0
   -1.8770    7.9280   -1.2350 H   0  0  0  0  0  0  0  0  0  0  0  0
   -2.0140    7.9110    0.5370 H   0  0  0  0  0  0  0  0  0  0  0  0
   -2.1500    5.7930    0.7180 H   0  0  0  0  0  0  0  0  0  0  0  0
    0.4630    7.6420   -1.2370 H   0  0  0  0  0  0  0  0  0  0  0  0
    0.0500    7.7200   -0.2190 C   0  0  1  0  0  0  0  0  0  0  0  0
    0.1040    5.5480   -1.3080 H   0  0  0  0  0  0  0  0  0  0  0  0
   -0.5170   10.0620    0.3830 C   0  0  0  0  0  0  0  0  0  0  0  0
   -0.2640   11.3730    0.4290 C   0  0  0  0  0  0  0  0  0  0  0  0
    0.9860   11.8540    0.2850 C   0  0  1  0  0  0  0  0  0  0  0  0
    1.9900   10.9400    0.2130 C   0  0  0  0  0  0  0  0  0  0  0  0
    1.7300    9.6050    0.1700 C   0  0  0  0  0  0  0  0  0  0  0  0
    1.2100   13.3000    0.1870 C   0  0  0  0  0  0  0  0  0  0  0  0
   -1.1300   12.0150    0.5230 H   0  0  0  0  0  0  0  0  0  0  0  0
   -1.5680    9.8130    0.4220 H   0  0  0  0  0  0  0  0  0  0  0  0
    2.5590    8.9120    0.0350 H   0  0  0  0  0  0  0  0  0  0  0  0
    3.0220   11.2710    0.1280 H   0  0  0  0  0  0  0  0  0  0  0  0
    0.2180   14.2010    0.0310 C   0  0  0  0  0  0  0  0  0  0  0  0
    0.4250   15.6440   -0.0850 C   0  0  0  0  0  0  0  0  0  0  0  0
   -0.8230   13.9260   -0.0380 H   0  0  0  0  0  0  0  0  0  0  0  0
    2.2410   13.6470    0.1970 H   0  0  0  0  0  0  0  0  0  0  0  0
   -0.7570   16.2710   -0.1310 O   0  0  0  0  0  0  0  0  0  0  0  0
    1.4870   16.2360   -0.1230 O   0  0  0  0  0  0  0  0  0  0  0  0
   -0.5330   17.2230   -0.1840 H   0  0  0  0  0  0  0  0  0  0  0  0
  1  5  1  0  0  0  0
  2  1  1  0  0  0  0
  3  2  2  0  0  0  0
  4  2  1  6  0  0  0
  4 10  5  0  0  0  0
  6  4  5  0  0  0  0
  6  7  5  0  0  0  0
  6 13  1  0  0  0  0
  7 12  1  0  0  0  0
  8  7  5  6  0  0  0
  8 11  1  0  0  0  0
  9  8  5  0  0  0  0
  9 15  1  6  0  0  0
 10  9  5  0  0  0  0
 10 14  1  0  0  0  0
 11 18  1  0  0  0  0
 11 26  1  6  0  0  0
 16 11  1  0  0  0  0
 17 25  1  0  0  0  0
 17 22  1  0  0  0  0
 18 17  1  0  0  0  0
 18 23  1  0  0  0  0
 19 25  1  0  0  0  0
 19 27  5  6  0  0  0
 19 31  5  0  0  0  0
 20 18  1  0  0  0  0
 21 17  1  0  0  0  0
 25 16  1  0  0  0  0
 25 24  1  6  0  0  0
 27 28  5  0  0  0  0
 27 34  1  0  0  0  0
 28 33  1  0  0  0  0
 29 28  5  0  0  0  0
 29 32  1  6  0  0  0
 30 29  5  0  0  0  0
 30 36  1  0  0  0  0
 31 30  5  0  0  0  0
 31 35  1  0  0  0  0
 32 40  1  0  0  0  0
 37 32  2  0  0  0  0
 37 39  1  0  0  0  0
 38 37  1  0  0  0  0
 38 42  2  0  0  0  0
 41 38  1  0  0  0  0
 43 41  1  0  0  0  0
M  END
