43

O          1.18500       -0.88000        0.20200
C          0.01700       -0.22300        0.34100
O         -1.03700       -0.83200        0.47100
C          0.09900        1.27300        0.29900
H          1.99200       -0.34100        0.21300
C         -1.02800        1.93100        0.63000
C         -1.08700        3.27000        0.53900
C         -0.03400        4.01400        0.11100
C          1.11700        3.34600       -0.18900
C          1.17200        1.99400       -0.09300
C         -0.22100        5.48800       -0.25700
H         -2.05100        3.71800        0.76800
H         -1.92400        1.38800        0.93200
H          2.09200        1.50800       -0.39500
Br         2.66700        4.22300       -0.83300
O          0.51800        6.52600        0.46100
C         -1.46800        7.49500       -0.31700
C         -1.65000        6.00700       -0.23500
C          0.45600        9.13900        0.20000
H         -2.26600        5.61100       -1.04700
H         -1.87700        7.92800       -1.23500
H         -2.01400        7.91100        0.53700
H         -2.15000        5.79300        0.71800
H          0.46300        7.64200       -1.23700
C          0.05000        7.72000       -0.21900
H          0.10400        5.54800       -1.30800
C         -0.51700       10.06200        0.38300
C         -0.26400       11.37300        0.42900
C          0.98600       11.85400        0.28500
C          1.99000       10.94000        0.21300
C          1.73000        9.60500        0.17000
C          1.21000       13.30000        0.18700
H         -1.13000       12.01500        0.52300
H         -1.56800        9.81300        0.42200
H          2.55900        8.91200        0.03500
H          3.02200       11.27100        0.12800
C          0.21800       14.20100        0.03100
C          0.42500       15.64400       -0.08500
H         -0.82300       13.92600       -0.03800
H          2.24100       13.64700        0.19700
O         -0.75700       16.27100       -0.13100
O          1.48700       16.23600       -0.12300
H         -0.53300       17.22300       -0.18400
