
 OpenBabel11042013053D

 36 37  0  0  1  0  0  0  0  0999 V2000
    0.9840    0.0280    0.0850 O   0  0  0  0  0  0  0  0  0  0  0  0
   -0.2440    0.5680    0.3190 C   0  0  0  0  0  0  0  0  0  0  0  0
   -1.2000   -0.1340    0.6010 O   0  0  0  0  0  0  0  0  0  0  0  0
   -0.3570    2.0460    0.1460 C   0  0  2  0  0  0  0  0  0  0  0  0
    1.6470    0.6210   -0.3150 H   0  0  0  0  0  0  0  0  0  0  0  0
   -1.5050    2.6660   -0.1340 C   0  0  0  0  0  0  0  0  0  0  0  0
   -1.5210    4.0030   -0.3060 C   0  0  0  0  0  0  0  0  0  0  0  0
   -0.3900    4.7380   -0.3260 C   0  0  2  0  0  0  0  0  0  0  0  0
    0.8120    4.1170   -0.0300 C   0  0  1  0  0  0  0  0  0  0  0  0
    0.7830    2.8020    0.2190 C   0  0  0  0  0  0  0  0  0  0  0  0
   -0.4270    6.1760   -0.6220 C   0  0  0  0  0  0  0  0  0  0  0  0
   -2.4960    4.4740   -0.4850 H   0  0  0  0  0  0  0  0  0  0  0  0
   -2.4270    2.0710   -0.1640 H   0  0  0  0  0  0  0  0  0  0  0  0
    1.7220    2.3570    0.5140 H   0  0  0  0  0  0  0  0  0  0  0  0
    2.4150    5.9780    0.1240 C   0  0  0  0  0  0  0  0  0  0  0  0
    2.0550    6.4810   -0.7670 H   0  0  0  0  0  0  0  0  0  0  0  0
    2.4490    6.2640    1.1810 H   0  0  0  0  0  0  0  0  0  0  0  0
    3.4460    6.2540   -0.0850 H   0  0  0  0  0  0  0  0  0  0  0  0
    2.1090    4.6090    0.0220 O   0  0  0  0  0  0  0  0  0  0  0  0
   -1.1020    7.1040    0.0710 C   0  0  0  0  0  0  0  0  0  0  0  0
   -0.7350    8.5570    0.2680 C   0  0  1  0  0  0  0  0  0  0  0  0
   -1.9290    6.7930    0.7070 H   0  0  0  0  0  0  0  0  0  0  0  0
    0.3100    6.5030   -1.3460 H   0  0  0  0  0  0  0  0  0  0  0  0
    0.6690    9.1340    0.1260 C   0  0  0  0  0  0  0  0  0  0  0  0
    0.2910   10.5000   -0.1190 N   0  0  0  0  0  0  0  0  0  0  0  0
   -0.9750   10.5930   -0.6350 N   0  0  0  0  0  0  0  0  0  0  0  0
   -1.5360    9.4660   -0.5750 N   0  0  0  0  0  0  0  0  0  0  0  0
    1.0710   11.5940    0.0990 N   0  0  0  0  0  0  0  0  0  0  0  0
    1.2210    8.7970   -0.7580 H   0  0  0  0  0  0  0  0  0  0  0  0
    1.2820    9.0170    1.0260 H   0  0  0  0  0  0  0  0  0  0  0  0
   -1.0260    8.7640    1.3080 H   0  0  0  0  0  0  0  0  0  0  0  0
    0.6620   12.5190   -0.6360 N   0  0  0  0  0  0  0  0  0  0  0  0
    0.7630   13.7620   -0.0940 C   0  0  0  0  0  0  0  0  0  0  0  0
   -0.4480   14.3650   -0.1030 O   0  0  0  0  0  0  0  0  0  0  0  0
    1.7480   14.3620    0.3120 O   0  0  0  0  0  0  0  0  0  0  0  0
   -0.2740   15.2580    0.2480 H   0  0  0  0  0  0  0  0  0  0  0  0
  1  5  1  0  0  0  0
  2  1  1  0  0  0  0
  3  2  2  0  0  0  0
  4  2  1  6  0  0  0
  4 10  5  0  0  0  0
  6  4  5  0  0  0  0
  6  7  5  0  0  0  0
  6 13  1  0  0  0  0
  7 12  1  0  0  0  0
  8  7  5  0  0  0  0
  8 11  1  1  0  0  0
  9  8  5  0  0  0  0
  9 19  1  6  0  0  0
 10  9  5  0  0  0  0
 10 14  1  0  0  0  0
 11 23  1  0  0  0  0
 15 16  1  0  0  0  0
 15 17  1  0  0  0  0
 15 18  1  0  0  0  0
 15 19  1  0  0  0  0
 20 11  2  0  0  0  0
 20 22  1  0  0  0  0
 21 20  1  0  0  0  0
 21 27  1  0  0  0  0
 21 31  1  1  0  0  0
 24 21  1  0  0  0  0
 24 29  1  0  0  0  0
 24 30  1  0  0  0  0
 25 24  1  0  0  0  0
 26 25  1  0  0  0  0
 27 26  2  0  0  0  0
 28 25  1  0  0  0  0
 32 28  2  0  0  0  0
 33 32  1  0  0  0  0
 33 35  2  0  0  0  0
 34 33  1  0  0  0  0
 36 34  1  0  0  0  0
M  END
