34

O          1.03200        0.15600       -0.00000
C         -0.13700        0.84700       -0.00000
O         -1.07200        0.08500       -0.00000
C         -0.07600        2.64900       -0.00000
H          1.90900        0.58900       -0.00000
C         -1.29400        3.38100       -0.00000
C         -1.30200        4.75300        0.00000
C         -0.11500        5.42600       -0.00000
C          1.00700        4.79000        0.00000
C          1.03600        3.40700        0.00000
C         -0.06100        6.87400       -0.00000
H         -2.24500        5.29400        0.00000
C         -2.54400        2.53200        0.00000
Br         2.67600        2.52800        0.00000
H          1.92200        5.40000        0.00000
H         -3.62500        2.52100       -0.00000
H         -2.71700        1.44900        0.00000
H         -1.78800        1.85200        0.00000
C          0.08600        8.06700        0.00000
C         -0.14000        9.64200        0.00000
C          1.20300       10.36900       -0.00000
C          0.79400       12.07200        0.00000
N         -0.62900       12.01500       -0.00000
N         -1.18300       10.68500       -0.00000
C          1.01900       13.93800       -0.00000
H         -2.19400       10.43900        0.00000
H         -1.20800       12.85900        0.00000
H          2.35700       10.44700        0.00000
H          1.89100       12.31900       -0.00000
H          1.84000        9.40300        0.00000
H         -1.06700        9.01600       -0.00000
O         -0.07000       14.84200        0.00000
O          2.14600       14.46000        0.00000
H          0.14500       15.83800       -0.00000
