
 OpenBabel11042013053D

 34 35  0  0  1  0  0  0  0  0999 V2000
    1.0320    0.1560   -0.0000 O   0  0  0  0  0  0  0  0  0  0  0  0
   -0.1370    0.8470   -0.0000 C   0  0  0  0  0  0  0  0  0  0  0  0
   -1.0720    0.0850   -0.0000 O   0  0  0  0  0  0  0  0  0  0  0  0
   -0.0760    2.6490   -0.0000 C   0  0  1  0  0  0  0  0  0  0  0  0
    1.9090    0.5890   -0.0000 H   0  0  0  0  0  0  0  0  0  0  0  0
   -1.2940    3.3810   -0.0000 C   0  0  1  0  0  0  0  0  0  0  0  0
   -1.3020    4.7530    0.0000 C   0  0  0  0  0  0  0  0  0  0  0  0
   -0.1150    5.4260   -0.0000 C   0  0  1  0  0  0  0  0  0  0  0  0
    1.0070    4.7900    0.0000 C   0  0  0  0  0  0  0  0  0  0  0  0
    1.0360    3.4070    0.0000 C   0  0  2  0  0  0  0  0  0  0  0  0
   -0.0610    6.8740   -0.0000 C   0  0  0  0  0  0  0  0  0  0  0  0
   -2.2450    5.2940    0.0000 H   0  0  0  0  0  0  0  0  0  0  0  0
   -2.5440    2.5320    0.0000 C   0  0  0  0  0  0  0  0  0  0  0  0
    2.6760    2.5280    0.0000 Br  0  0  0  0  0  0  0  0  0  0  0  0
    1.9220    5.4000    0.0000 H   0  0  0  0  0  0  0  0  0  0  0  0
   -3.6250    2.5210   -0.0000 H   0  0  0  0  0  0  0  0  0  0  0  0
   -2.7170    1.4490    0.0000 H   0  0  0  0  0  0  0  0  0  0  0  0
   -1.7880    1.8520    0.0000 H   0  0  0  0  0  0  0  0  0  0  0  0
    0.0860    8.0670    0.0000 C   0  0  0  0  0  0  0  0  0  0  0  0
   -0.1400    9.6420    0.0000 C   0  0  1  0  0  0  0  0  0  0  0  0
    1.2030   10.3690   -0.0000 C   0  0  0  0  0  0  0  0  0  0  0  0
    0.7940   12.0720    0.0000 C   0  0  2  0  0  0  0  0  0  0  0  0
   -0.6290   12.0150   -0.0000 N   0  0  0  0  0  0  0  0  0  0  0  0
   -1.1830   10.6850   -0.0000 N   0  0  0  0  0  0  0  0  0  0  0  0
    1.0190   13.9380   -0.0000 C   0  0  0  0  0  0  0  0  0  0  0  0
   -2.1940   10.4390    0.0000 H   0  0  0  0  0  0  0  0  0  0  0  0
   -1.2080   12.8590    0.0000 H   0  0  0  0  0  0  0  0  0  0  0  0
    2.3570   10.4470    0.0000 H   0  0  0  0  0  0  0  0  0  0  0  0
    1.8910   12.3190   -0.0000 H   0  0  0  0  0  0  0  0  0  0  0  0
    1.8400    9.4030    0.0000 H   0  0  0  0  0  0  0  0  0  0  0  0
   -1.0670    9.0160   -0.0000 H   0  0  0  0  0  0  0  0  0  0  0  0
   -0.0700   14.8420    0.0000 O   0  0  0  0  0  0  0  0  0  0  0  0
    2.1460   14.4600    0.0000 O   0  0  0  0  0  0  0  0  0  0  0  0
    0.1450   15.8380   -0.0000 H   0  0  0  0  0  0  0  0  0  0  0  0
  1  5  1  0  0  0  0
  2  1  1  0  0  0  0
  3  2  2  0  0  0  0
  4  2  1  1  0  0  0
  4 10  5  0  0  0  0
  6  4  5  0  0  0  0
  6  7  5  0  0  0  0
  6 13  1  6  0  0  0
  7 12  1  0  0  0  0
  8  7  5  0  0  0  0
  8 11  1  6  0  0  0
  9  8  5  0  0  0  0
  9 15  1  0  0  0  0
 10  9  5  0  0  0  0
 10 14  1  6  0  0  0
 13 16  1  0  0  0  0
 13 17  1  0  0  0  0
 13 18  1  0  0  0  0
 19 11  3  0  0  0  0
 20 19  1  0  0  0  0
 20 24  1  0  0  0  0
 20 31  1  1  0  0  0
 21 20  1  0  0  0  0
 21 28  1  0  0  0  0
 21 30  1  0  0  0  0
 22 21  1  0  0  0  0
 22 29  1  1  0  0  0
 23 22  1  0  0  0  0
 24 23  1  0  0  0  0
 25 22  1  0  0  0  0
 25 33  2  0  0  0  0
 26 24  1  0  0  0  0
 27 23  1  0  0  0  0
 32 25  1  0  0  0  0
 34 32  1  0  0  0  0
M  END
