31

O          1.02700       -0.14000       -0.03900
C         -0.08200        0.62100       -0.11200
O         -1.18400        0.09600       -0.21900
C          0.11200        2.10700       -0.02700
H          1.86400        0.35600        0.02400
C         -1.04800        2.80900        0.06400
C         -1.06800        4.16000        0.14400
C          0.11600        4.81800        0.12600
C          1.27300        4.13600        0.03500
C          1.28000        2.79000       -0.04400
C          0.15400        6.23500        0.14200
C         -2.39500        4.88900        0.20600
H         -2.00400        2.28300        0.06700
Cl         2.84700        2.05100       -0.19300
H          2.21200        4.68700        0.01000
H         -3.20200        4.30500       -0.24900
H         -2.37400        5.83800       -0.34400
H         -2.66300        5.10100        1.24600
C          0.05700        7.42300       -0.00200
C         -0.18200        8.80300       -0.37500
C          0.92500        9.74900       -0.03300
N          0.12700       10.90500        0.26700
N         -1.14900       10.57000        0.61700
N         -1.31600        9.33500        0.41100
C          0.52200       12.19000        0.04700
H          1.62800        9.92100       -0.85200
H          1.47700        9.47200        0.87300
H         -0.44400        8.87000       -1.43800
O         -0.44700       13.10500        0.25300
O          1.62200       12.54900       -0.34600
H         -0.02200       13.95100        0.01000
