45

O          1.18200        0.02200        0.01300
C         -0.04100        0.49700        0.32200
O         -0.86300       -0.21300        0.87600
C         -0.22300        1.92700       -0.05400
H          1.16800       -0.90400        0.32900
C         -1.45900        2.46700       -0.02900
C         -1.62200        3.77000       -0.31500
C         -0.55000        4.55100       -0.60600
C          0.68700        3.99500       -0.65300
C          0.84400        2.68100       -0.39000
C         -0.65300        5.98700       -0.80000
H         -2.62300        4.20300       -0.28100
H         -2.32300        1.86200        0.23700
H          1.84000        2.26300       -0.42100
C          2.46700        5.23400        0.18600
C         -1.04700        6.79000        0.20000
C         -0.78700        8.26000        0.30200
H         -1.51800        6.34700        1.07600
H         -0.16000        6.38700       -1.68600
H          1.78500        5.78300        0.84500
H          2.93300        4.40700        0.73200
H          3.25200        5.92400       -0.13500
O          1.80400        4.75600       -0.98400
C          0.53100        8.82300       -0.19700
N          0.09100       10.12400       -0.69300
N         -1.24800       10.01600       -1.03200
N         -1.76200        8.99000       -0.51800
C          0.43900       11.32800        0.06300
H          1.30400        8.90100        0.57400
H          0.94400        8.27600       -1.05100
H         -0.90300        8.54500        1.35700
O          1.31000       12.20300       -0.67800
C         -0.18300       13.60200        0.48200
C         -0.74400       12.20600        0.45200
C          1.83900       14.71800       -0.60600
H         -1.54200       12.19700       -0.29900
H         -0.76100       14.22300       -0.21200
H         -0.25600       14.06400        1.47200
H         -1.18800       11.89000        1.39900
H          1.88200       13.30400        0.94300
C          1.26800       13.44600        0.04200
H          0.98700       11.02400        0.96500
O          1.02400       15.79400       -0.51300
O          2.95500       14.85100       -1.08400
H          1.52900       16.53000       -0.91800
