
 OpenBabel11042013053D

 35 36  0  0  1  0  0  0  0  0999 V2000
    1.4010   -0.3430    0.0130 O   0  0  0  0  0  0  0  0  0  0  0  0
    0.1990    0.2650    0.0610 C   0  0  0  0  0  0  0  0  0  0  0  0
   -0.8320   -0.3910    0.1170 O   0  0  0  0  0  0  0  0  0  0  0  0
    0.2140    1.7640    0.0360 C   0  0  1  0  0  0  0  0  0  0  0  0
    2.1820    0.2250   -0.0710 H   0  0  0  0  0  0  0  0  0  0  0  0
   -0.9980    2.3700   -0.0020 C   0  0  0  0  0  0  0  0  0  0  0  0
   -1.0950    3.7140   -0.0350 C   0  0  0  0  0  0  0  0  0  0  0  0
    0.0090    4.4870   -0.0230 C   0  0  1  0  0  0  0  0  0  0  0  0
    1.2130    3.8780    0.0140 C   0  0  0  0  0  0  0  0  0  0  0  0
    1.3240    2.5340    0.0520 C   0  0  0  0  0  0  0  0  0  0  0  0
   -0.0260    5.8530   -0.0950 N   0  0  0  0  0  0  0  0  0  0  0  0
   -2.0800    4.1760   -0.0710 H   0  0  0  0  0  0  0  0  0  0  0  0
   -1.9140    1.7810   -0.0130 H   0  0  0  0  0  0  0  0  0  0  0  0
    2.3280    2.1340    0.0860 H   0  0  0  0  0  0  0  0  0  0  0  0
    2.1140    4.4870    0.0170 H   0  0  0  0  0  0  0  0  0  0  0  0
   -0.6760    6.4570    0.7830 N   0  0  0  0  0  0  0  0  0  0  0  0
   -0.3740    7.7550    0.6570 C   0  0  0  0  0  0  0  0  0  0  0  0
    0.0130    8.8640    0.4060 C   0  0  0  0  0  0  0  0  0  0  0  0
    0.4660   10.0230   -0.0700 N   0  0  0  0  0  0  0  0  0  0  0  0
    0.2800   10.9620    0.7230 N   0  0  0  0  0  0  0  0  0  0  0  0
    0.2840   12.2280   -0.0190 C   0  0  2  0  0  0  0  0  0  0  0  0
    0.9220   13.3820    0.5510 O   0  0  0  0  0  0  0  0  0  0  0  0
   -1.1300   14.1580   -0.2230 C   0  0  0  0  0  0  0  0  0  0  0  0
   -1.1690   12.6480   -0.2240 C   0  0  0  0  0  0  0  0  0  0  0  0
    0.6480   15.8720    0.3970 C   0  0  0  0  0  0  0  0  0  0  0  0
   -1.8150   12.2900    0.5880 H   0  0  0  0  0  0  0  0  0  0  0  0
   -1.6540   14.5380    0.6620 H   0  0  0  0  0  0  0  0  0  0  0  0
   -1.6160   14.5870   -1.1040 H   0  0  0  0  0  0  0  0  0  0  0  0
   -1.5680   12.2310   -1.1540 H   0  0  0  0  0  0  0  0  0  0  0  0
    0.7810   14.4730   -1.1770 H   0  0  0  0  0  0  0  0  0  0  0  0
    0.3540   14.4850   -0.1640 C   0  0  1  0  0  0  0  0  0  0  0  0
    0.7630   12.0870   -1.0000 H   0  0  0  0  0  0  0  0  0  0  0  0
   -0.2270   16.8050   -0.0400 O   0  0  0  0  0  0  0  0  0  0  0  0
    1.5960   16.2060    1.0880 O   0  0  0  0  0  0  0  0  0  0  0  0
    0.1050   17.6390    0.3550 H   0  0  0  0  0  0  0  0  0  0  0  0
  1  5  1  0  0  0  0
  2  1  1  0  0  0  0
  3  2  2  0  0  0  0
  4  2  1  1  0  0  0
  4 10  5  0  0  0  0
  6  4  5  0  0  0  0
  6  7  5  0  0  0  0
  6 13  1  0  0  0  0
  7 12  1  0  0  0  0
  8  7  5  0  0  0  0
  8 11  1  6  0  0  0
  9  8  5  0  0  0  0
  9 15  1  0  0  0  0
 10  9  5  0  0  0  0
 10 14  1  0  0  0  0
 16 11  2  0  0  0  0
 17 16  1  0  0  0  0
 18 17  3  0  0  0  0
 19 18  1  0  0  0  0
 20 19  2  0  0  0  0
 21 20  1  0  0  0  0
 21 24  1  0  0  0  0
 21 32  1  6  0  0  0
 22 21  1  0  0  0  0
 23 31  1  0  0  0  0
 23 28  1  0  0  0  0
 24 23  1  0  0  0  0
 24 29  1  0  0  0  0
 25 31  1  0  0  0  0
 25 34  2  0  0  0  0
 26 24  1  0  0  0  0
 27 23  1  0  0  0  0
 31 22  1  0  0  0  0
 31 30  1  6  0  0  0
 33 25  1  0  0  0  0
 35 33  1  0  0  0  0
M  END
