
 OpenBabel02032115563D

 28 28  0  0  1  0  0  0  0  0999 V2000
    1.8370    0.6930    0.6990 O   0  0  0  0  0  0  0  0  0  0  0  0
    1.0600    1.8000    0.7410 C   0  0  0  0  0  0  0  0  0  0  0  0
    0.3190    1.5830    1.6780 O   0  0  0  0  0  0  0  0  0  0  0  0
    0.8360    3.2040    0.3330 C   0  0  1  0  0  0  0  0  0  0  0  0
    2.5030    0.4170    0.0000 H   0  0  0  0  0  0  0  0  0  0  0  0
   -0.4030    3.7700    0.2940 C   0  0  1  0  0  0  0  0  0  0  0  0
   -0.6050    5.0800    0.0470 C   0  0  0  0  0  0  0  0  0  0  0  0
    0.4190    5.9890   -0.1130 C   0  0  2  0  0  0  0  0  0  0  0  0
    1.6420    5.3390   -0.2510 C   0  0  2  0  0  0  0  0  0  0  0  0
    1.8550    4.0200   -0.0050 C   0  0  1  0  0  0  0  0  0  0  0  0
    0.1930    7.3620    0.1030 C   0  0  0  0  0  0  0  0  0  0  0  0
   -1.6270    5.4520    0.0030 H   0  0  0  0  0  0  0  0  0  0  0  0
   -1.8790    2.8770    0.4750 Cl  0  0  0  0  0  0  0  0  0  0  0  0
    3.2800    3.4710   -0.0670 C   0  0  0  0  0  0  0  0  0  0  0  0
    2.6110    6.1970   -0.6120 F   0  0  0  0  0  0  0  0  0  0  0  0
   -0.7540    8.3060   -0.2320 C   0  0  0  0  0  0  0  0  0  0  0  0
   -0.7230    9.7940    0.1440 C   0  0  0  0  0  0  0  0  0  0  0  0
   -1.6180    8.0000   -0.8210 H   0  0  0  0  0  0  0  0  0  0  0  0
    0.9970    7.7960    0.6910 H   0  0  0  0  0  0  0  0  0  0  0  0
    3.5330    2.6370   -1.3420 C   0  0  0  0  0  0  0  0  0  0  0  0
    4.2390    1.8300   -1.1300 H   0  0  0  0  0  0  0  0  0  0  0  0
    2.6090    2.1860   -1.7160 H   0  0  0  0  0  0  0  0  0  0  0  0
    3.9510    3.2610   -2.1330 H   0  0  0  0  0  0  0  0  0  0  0  0
    4.0240    4.2690   -0.0180 H   0  0  0  0  0  0  0  0  0  0  0  0
    3.4750    2.8530    0.8130 H   0  0  0  0  0  0  0  0  0  0  0  0
   -1.7340   10.5810   -0.2570 O   0  0  0  0  0  0  0  0  0  0  0  0
    0.1930   10.2660    0.7850 O   0  0  0  0  0  0  0  0  0  0  0  0
   -1.6990   11.5770    0.0000 H   0  0  0  0  0  0  0  0  0  0  0  0
  1  5  1  0  0  0  0
  2  1  1  0  0  0  0
  3  2  2  0  0  0  0
  4  2  1  1  0  0  0
  4 10  5  0  0  0  0
  6  4  5  0  0  0  0
  6  7  5  0  0  0  0
  6 13  1  6  0  0  0
  7 12  1  0  0  0  0
  8  7  5  0  0  0  0
  8 11  1  1  0  0  0
  9  8  5  0  0  0  0
  9 15  1  1  0  0  0
 10  9  5  0  0  0  0
 10 14  1  1  0  0  0
 11 19  1  0  0  0  0
 14 24  1  0  0  0  0
 14 25  1  0  0  0  0
 16 11  2  0  0  0  0
 16 18  1  0  0  0  0
 17 16  1  0  0  0  0
 17 27  2  0  0  0  0
 20 21  1  0  0  0  0
 20 22  1  0  0  0  0
 20 23  1  0  0  0  0
 20 14  1  0  0  0  0
 26 17  1  0  0  0  0
 28 26  1  0  0  0  0
M  END
