
 OpenBabel11042013033D

 41 42  0  0  1  0  0  0  0  0999 V2000
    1.2220    0.6520    0.0000 O   0  0  0  0  0  0  0  0  0  0  0  0
   -0.0450    1.3070    0.0000 C   0  0  0  0  0  0  0  0  0  0  0  0
   -1.1590    0.7280    0.0000 O   0  0  0  0  0  0  0  0  0  0  0  0
   -0.0280    2.5280    0.0020 C   0  0  1  0  0  0  0  0  0  0  0  0
    2.4370    0.4200    0.0000 H   0  0  0  0  0  0  0  0  0  0  0  0
   -1.2170    3.0950    0.0020 C   0  0  0  0  0  0  0  0  0  0  0  0
   -1.5830    4.2140    0.0060 C   0  0  0  0  0  0  0  0  0  0  0  0
   -0.5200    4.6460   -0.0230 C   0  0  2  0  0  0  0  0  0  0  0  0
    0.2020    3.8340   -0.0130 C   0  0  2  0  0  0  0  0  0  0  0  0
    0.9360    3.1340    0.0070 C   0  0  2  0  0  0  0  0  0  0  0  0
    0.0170    6.9910   -0.0240 C   0  0  1  0  0  0  0  0  0  0  0  0
   -1.5680    5.0020    0.0010 H   0  0  0  0  0  0  0  0  0  0  0  0
   -1.8840    2.6180   -0.0000 H   0  0  0  0  0  0  0  0  0  0  0  0
    2.0730    2.7770    0.0000 C   0  0  0  0  0  0  0  0  0  0  0  0
    1.0300    5.3880    0.6520 C   0  0  0  0  0  0  0  0  0  0  0  0
    1.0840    6.1080    1.4480 H   0  0  0  0  0  0  0  0  0  0  0  0
    0.2650    5.6250   -0.0440 H   0  0  0  0  0  0  0  0  0  0  0  0
    1.3120    5.5920   -0.2490 H   0  0  0  0  0  0  0  0  0  0  0  0
    0.4490    4.7990   -0.2380 O   0  0  0  0  0  0  0  0  0  0  0  0
    2.0780    2.7730    0.0000 C   0  0  0  0  0  0  0  0  0  0  0  0
    2.8010    3.2430   -0.0520 H   0  0  0  0  0  0  0  0  0  0  0  0
    2.0810    2.7710    0.0000 H   0  0  0  0  0  0  0  0  0  0  0  0
    2.8860    2.8730    0.1710 H   0  0  0  0  0  0  0  0  0  0  0  0
    1.4370    3.4980    0.1390 H   0  0  0  0  0  0  0  0  0  0  0  0
    2.7950    1.6240   -0.0150 H   0  0  0  0  0  0  0  0  0  0  0  0
    2.4030    7.8150   -0.0020 C   0  0  0  0  0  0  0  0  0  0  0  0
    1.4790   10.4510   -0.0000 C   0  0  2  0  0  0  0  0  0  0  0  0
   -0.9760   10.1250   -0.0000 N   0  0  0  0  0  0  0  0  0  0  0  0
   -2.0590    7.9960   -0.0020 N   0  0  0  0  0  0  0  0  0  0  0  0
    1.0400   12.8300   -0.0000 C   0  0  0  0  0  0  0  0  0  0  0  0
   -3.7600    7.4140   -0.0000 H   0  0  0  0  0  0  0  0  0  0  0  0
   -2.3540   11.4190   -0.0000 H   0  0  0  0  0  0  0  0  0  0  0  0
    4.5300    7.5820   -0.0000 H   0  0  0  0  0  0  0  0  0  0  0  0
    0.9110   10.7040   -0.0000 H   0  0  0  0  0  0  0  0  0  0  0  0
    3.5350    6.1550   -0.0000 H   0  0  0  0  0  0  0  0  0  0  0  0
   -1.6510    6.1510   -0.0000 H   0  0  0  0  0  0  0  0  0  0  0  0
    0.6050   14.7270   -0.0000 C   0  0  0  0  0  0  0  0  0  0  0  0
    0.5650   16.6950   -0.0000 C   0  0  0  0  0  0  0  0  0  0  0  0
   -0.9260   17.8640    0.0000 O   0  0  0  0  0  0  0  0  0  0  0  0
    1.7980   17.5690    0.0000 O   0  0  0  0  0  0  0  0  0  0  0  0
   -1.1470   19.2790   -0.0000 H   0  0  0  0  0  0  0  0  0  0  0  0
  1  5  1  0  0  0  0
  2  1  1  0  0  0  0
  3  2  2  0  0  0  0
  4  2  1  1  0  0  0
  4 10  5  0  0  0  0
  6  4  5  0  0  0  0
  6  7  5  0  0  0  0
  6 13  1  0  0  0  0
  7 12  1  0  0  0  0
  8  7  5  1  0  0  0
  8 11  1  0  0  0  0
  9  8  5  0  0  0  0
  9 19  1  6  0  0  0
 10  9  5  0  0  0  0
 10 14  1  6  0  0  0
 11 29  1  0  0  0  0
 11 36  1  1  0  0  0
 14 24  1  0  0  0  0
 14 25  1  0  0  0  0
 15 16  1  0  0  0  0
 15 17  1  0  0  0  0
 15 18  1  0  0  0  0
 15 19  1  0  0  0  0
 20 21  1  0  0  0  0
 20 22  1  0  0  0  0
 20 23  1  0  0  0  0
 20 14  1  0  0  0  0
 26 11  1  0  0  0  0
 26 33  1  0  0  0  0
 26 35  1  0  0  0  0
 27 26  1  0  0  0  0
 27 34  1  1  0  0  0
 28 27  1  0  0  0  0
 29 28  1  0  0  0  0
 30 27  1  0  0  0  0
 31 29  1  0  0  0  0
 32 28  1  0  0  0  0
 37 30  3  0  0  0  0
 38 37  1  0  0  0  0
 38 40  2  0  0  0  0
 39 38  1  0  0  0  0
 41 39  1  0  0  0  0
M  END
