
 OpenBabel11042013053D

 34 35  0  0  1  0  0  0  0  0999 V2000
    1.4130   -0.0780   -0.0880 O   0  0  0  0  0  0  0  0  0  0  0  0
    0.1620    0.4360   -0.0680 C   0  0  0  0  0  0  0  0  0  0  0  0
   -0.7910   -0.3030   -0.2240 O   0  0  0  0  0  0  0  0  0  0  0  0
    0.0430    1.9000    0.1990 C   0  0  2  0  0  0  0  0  0  0  0  0
    2.1520    0.4780    0.2140 H   0  0  0  0  0  0  0  0  0  0  0  0
   -1.1770    2.4700    0.3740 C   0  0  1  0  0  0  0  0  0  0  0  0
   -1.2560    3.7870    0.6740 C   0  0  0  0  0  0  0  0  0  0  0  0
   -0.1690    4.5860    0.7210 C   0  0  1  0  0  0  0  0  0  0  0  0
    1.0310    4.0290    0.4230 C   0  0  1  0  0  0  0  0  0  0  0  0
    1.1270    2.7020    0.2010 C   0  0  0  0  0  0  0  0  0  0  0  0
   -0.4270    5.9210    0.9460 N   0  0  0  0  0  0  0  0  0  0  0  0
   -2.2370    4.2460    0.8300 H   0  0  0  0  0  0  0  0  0  0  0  0
   -2.4320    1.7950    0.1890 C   0  0  0  0  0  0  0  0  0  0  0  0
    2.1200    2.3300   -0.0180 H   0  0  0  0  0  0  0  0  0  0  0  0
    2.2260    4.7910    0.2760 N   0  0  0  0  0  0  0  0  0  0  0  0
    0.4990    6.7310    1.1410 N   0  0  0  0  0  0  0  0  0  0  0  0
    0.3860    7.8750    0.2200 C   0  0  2  0  0  0  0  0  0  0  0  0
    2.9830    4.4150   -0.2840 H   0  0  0  0  0  0  0  0  0  0  0  0
    2.0790    5.7830    0.1030 H   0  0  0  0  0  0  0  0  0  0  0  0
    1.0190    9.1190    0.5780 O   0  0  0  0  0  0  0  0  0  0  0  0
   -1.0750    9.7100   -0.2480 C   0  0  0  0  0  0  0  0  0  0  0  0
   -1.0640    8.2170   -0.1170 C   0  0  0  0  0  0  0  0  0  0  0  0
    0.5840   11.5830    0.1230 C   0  0  0  0  0  0  0  0  0  0  0  0
   -1.7710    7.9190    0.6670 H   0  0  0  0  0  0  0  0  0  0  0  0
   -1.5990   10.1210    0.6230 H   0  0  0  0  0  0  0  0  0  0  0  0
   -1.5910   10.0520   -1.1490 H   0  0  0  0  0  0  0  0  0  0  0  0
   -1.3740    7.7130   -1.0390 H   0  0  0  0  0  0  0  0  0  0  0  0
    0.8020    9.9980   -1.2540 H   0  0  0  0  0  0  0  0  0  0  0  0
    0.3890   10.1080   -0.2410 C   0  0  1  0  0  0  0  0  0  0  0  0
    0.8830    7.5540   -0.7080 H   0  0  0  0  0  0  0  0  0  0  0  0
   -3.4930    1.3750   -0.0270 N   0  0  0  0  0  0  0  0  0  0  0  0
   -0.5730   12.2830    0.1420 O   0  0  0  0  0  0  0  0  0  0  0  0
    1.6460   12.1570    0.2950 O   0  0  0  0  0  0  0  0  0  0  0  0
   -0.3090   13.2110    0.3090 H   0  0  0  0  0  0  0  0  0  0  0  0
  1  5  1  0  0  0  0
  2  1  1  0  0  0  0
  3  2  2  0  0  0  0
  4  2  1  6  0  0  0
  4 10  5  0  0  0  0
  6  4  5  0  0  0  0
  6  7  5  0  0  0  0
  6 13  1  6  0  0  0
  7 12  1  0  0  0  0
  8  7  5  0  0  0  0
  8 11  1  6  0  0  0
  9  8  5  0  0  0  0
  9 15  1  6  0  0  0
 10  9  5  0  0  0  0
 10 14  1  0  0  0  0
 13 31  3  0  0  0  0
 15 18  1  0  0  0  0
 15 19  1  0  0  0  0
 16 11  2  0  0  0  0
 17 16  1  0  0  0  0
 17 22  1  0  0  0  0
 17 30  1  6  0  0  0
 20 17  1  0  0  0  0
 21 29  1  0  0  0  0
 21 26  1  0  0  0  0
 22 21  1  0  0  0  0
 22 27  1  0  0  0  0
 23 29  1  0  0  0  0
 23 33  2  0  0  0  0
 24 22  1  0  0  0  0
 25 21  1  0  0  0  0
 29 20  1  0  0  0  0
 29 28  1  6  0  0  0
 32 23  1  0  0  0  0
 34 32  1  0  0  0  0
M  END
