34

O          1.41300       -0.07800       -0.08800
C          0.16200        0.43600       -0.06800
O         -0.79100       -0.30300       -0.22400
C          0.04300        1.90000        0.19900
H          2.15200        0.47800        0.21400
C         -1.17700        2.47000        0.37400
C         -1.25600        3.78700        0.67400
C         -0.16900        4.58600        0.72100
C          1.03100        4.02900        0.42300
C          1.12700        2.70200        0.20100
N         -0.42700        5.92100        0.94600
H         -2.23700        4.24600        0.83000
C         -2.43200        1.79500        0.18900
H          2.12000        2.33000       -0.01800
N          2.22600        4.79100        0.27600
N          0.49900        6.73100        1.14100
C          0.38600        7.87500        0.22000
H          2.98300        4.41500       -0.28400
H          2.07900        5.78300        0.10300
O          1.01900        9.11900        0.57800
C         -1.07500        9.71000       -0.24800
C         -1.06400        8.21700       -0.11700
C          0.58400       11.58300        0.12300
H         -1.77100        7.91900        0.66700
H         -1.59900       10.12100        0.62300
H         -1.59100       10.05200       -1.14900
H         -1.37400        7.71300       -1.03900
H          0.80200        9.99800       -1.25400
C          0.38900       10.10800       -0.24100
H          0.88300        7.55400       -0.70800
N         -3.49300        1.37500       -0.02700
O         -0.57300       12.28300        0.14200
O          1.64600       12.15700        0.29500
H         -0.30900       13.21100        0.30900
