
 OpenBabel11042013053D

 49 52  0  0  1  0  0  0  0  0999 V2000
    1.4020   -0.8460    0.0740 O   0  0  0  0  0  0  0  0  0  0  0  0
    0.1950   -0.2440    0.0440 C   0  0  0  0  0  0  0  0  0  0  0  0
   -0.8340   -0.8880    0.1900 O   0  0  0  0  0  0  0  0  0  0  0  0
    0.2100    1.2390   -0.1530 C   0  0  1  0  0  0  0  0  0  0  0  0
    2.1760   -0.2800   -0.0610 H   0  0  0  0  0  0  0  0  0  0  0  0
   -0.9940    1.8410   -0.2080 C   0  0  0  0  0  0  0  0  0  0  0  0
   -1.0910    3.1790   -0.2800 C   0  0  0  0  0  0  0  0  0  0  0  0
    0.0080    3.9760   -0.3000 C   0  0  2  0  0  0  0  0  0  0  0  0
    1.2110    3.3430   -0.3160 C   0  0  0  0  0  0  0  0  0  0  0  0
    1.3220    2.0050   -0.2340 C   0  0  0  0  0  0  0  0  0  0  0  0
   -0.0850    5.4490   -0.1060 C   0  0  1  0  0  0  0  0  0  0  0  0
   -2.0970    3.5860   -0.2600 H   0  0  0  0  0  0  0  0  0  0  0  0
   -1.9150    1.2600   -0.1340 H   0  0  0  0  0  0  0  0  0  0  0  0
    2.3230    1.6140   -0.1850 H   0  0  0  0  0  0  0  0  0  0  0  0
    2.1490    3.8850   -0.3200 H   0  0  0  0  0  0  0  0  0  0  0  0
   -1.2730    6.0830    0.0920 C   0  0  0  0  0  0  0  0  0  0  0  0
   -1.3280    7.3370    0.5770 C   0  0  0  0  0  0  0  0  0  0  0  0
   -0.1860    7.9810    0.8630 C   0  0  1  0  0  0  0  0  0  0  0  0
    0.9930    7.4380    0.5280 C   0  0  0  0  0  0  0  0  0  0  0  0
    1.0400    6.1960    0.0390 C   0  0  0  0  0  0  0  0  0  0  0  0
   -0.1650    9.2890    1.3640 C   0  0  0  0  0  0  0  0  0  0  0  0
   -2.2930    7.8080    0.7540 H   0  0  0  0  0  0  0  0  0  0  0  0
   -2.2290    5.5970   -0.0750 H   0  0  0  0  0  0  0  0  0  0  0  0
    2.0340    5.8250   -0.1660 H   0  0  0  0  0  0  0  0  0  0  0  0
    1.9170    7.9930    0.6720 H   0  0  0  0  0  0  0  0  0  0  0  0
   -0.0110   10.4570    1.1890 C   0  0  0  0  0  0  0  0  0  0  0  0
    0.0720   11.4890    0.1900 C   0  0  2  0  0  0  0  0  0  0  0  0
    0.6390   12.7110    0.6480 O   0  0  0  0  0  0  0  0  0  0  0  0
   -1.3790   13.2730   -0.3630 C   0  0  0  0  0  0  0  0  0  0  0  0
   -1.3210   11.7750   -0.3470 C   0  0  0  0  0  0  0  0  0  0  0  0
    0.2410   15.0770    0.3250 C   0  0  1  0  0  0  0  0  0  0  0  0
   -2.1280   11.3700    0.2770 H   0  0  0  0  0  0  0  0  0  0  0  0
   -1.9440   13.6110    0.5140 H   0  0  0  0  0  0  0  0  0  0  0  0
   -1.8650   13.6600   -1.2610 H   0  0  0  0  0  0  0  0  0  0  0  0
   -1.4420   11.3330   -1.3420 H   0  0  0  0  0  0  0  0  0  0  0  0
    0.5820   13.5840   -1.2180 H   0  0  0  0  0  0  0  0  0  0  0  0
    0.0820   13.6880   -0.2450 C   0  0  1  0  0  0  0  0  0  0  0  0
    0.7100   11.1210   -0.6240 H   0  0  0  0  0  0  0  0  0  0  0  0
    1.5530   15.7450    0.0100 C   0  0  0  0  0  0  0  0  0  0  0  0
    1.0650   17.0760   -0.2490 N   0  0  0  0  0  0  0  0  0  0  0  0
   -0.2650   17.1070   -0.5150 N   0  0  0  0  0  0  0  0  0  0  0  0
   -0.7540   15.9760   -0.3000 N   0  0  0  0  0  0  0  0  0  0  0  0
    1.7630   18.2280   -0.0620 C   0  0  0  0  0  0  0  0  0  0  0  0
    2.2770   15.7220    0.8300 H   0  0  0  0  0  0  0  0  0  0  0  0
    2.0320   15.3730   -0.9040 H   0  0  0  0  0  0  0  0  0  0  0  0
    0.0860   15.0680    1.4110 H   0  0  0  0  0  0  0  0  0  0  0  0
    1.0140   19.3450   -0.2090 O   0  0  0  0  0  0  0  0  0  0  0  0
    2.9350   18.3300    0.2610 O   0  0  0  0  0  0  0  0  0  0  0  0
    1.6210   20.0700    0.0320 H   0  0  0  0  0  0  0  0  0  0  0  0
  1  5  1  0  0  0  0
  2  1  1  0  0  0  0
  3  2  2  0  0  0  0
  4  2  1  1  0  0  0
  4 10  5  0  0  0  0
  6  4  5  0  0  0  0
  6  7  5  0  0  0  0
  6 13  1  0  0  0  0
  7 12  1  0  0  0  0
  8  7  5  1  0  0  0
  8 11  1  0  0  0  0
  9  8  5  0  0  0  0
  9 15  1  0  0  0  0
 10  9  5  0  0  0  0
 10 14  1  0  0  0  0
 11 16  5  1  0  0  0
 11 20  5  0  0  0  0
 16 17  5  0  0  0  0
 16 23  1  0  0  0  0
 17 22  1  0  0  0  0
 18 17  5  0  0  0  0
 18 21  1  6  0  0  0
 19 18  5  0  0  0  0
 19 25  1  0  0  0  0
 20 19  5  0  0  0  0
 20 24  1  0  0  0  0
 26 21  3  0  0  0  0
 27 26  1  0  0  0  0
 27 30  1  0  0  0  0
 27 38  1  6  0  0  0
 28 27  1  0  0  0  0
 29 37  1  0  0  0  0
 29 34  1  0  0  0  0
 30 29  1  0  0  0  0
 30 35  1  0  0  0  0
 31 37  1  0  0  0  0
 31 42  1  0  0  0  0
 31 46  1  1  0  0  0
 32 30  1  0  0  0  0
 33 29  1  0  0  0  0
 37 28  1  0  0  0  0
 37 36  1  6  0  0  0
 39 31  1  0  0  0  0
 39 44  1  0  0  0  0
 39 45  1  0  0  0  0
 40 39  1  0  0  0  0
 41 40  1  0  0  0  0
 42 41  2  0  0  0  0
 43 40  1  0  0  0  0
 43 48  2  0  0  0  0
 47 43  1  0  0  0  0
 49 47  1  0  0  0  0
M  END
