
 OpenBabel11042013053D

 48 50  0  0  1  0  0  0  0  0999 V2000
    1.8800   -0.1480   -0.1000 O   0  0  0  0  0  0  0  0  0  0  0  0
    0.6580    0.3990   -0.2780 C   0  0  0  0  0  0  0  0  0  0  0  0
   -0.2730   -0.3180   -0.6160 O   0  0  0  0  0  0  0  0  0  0  0  0
    0.5620    1.8990   -0.0200 C   0  0  2  0  0  0  0  0  0  0  0  0
    2.5400    0.3990    0.3570 H   0  0  0  0  0  0  0  0  0  0  0  0
   -0.6500    2.4950    0.2260 C   0  0  1  0  0  0  0  0  0  0  0  0
   -0.6450    3.8300    0.5060 C   0  0  2  0  0  0  0  0  0  0  0  0
    0.4470    4.6330    0.2980 C   0  0  1  0  0  0  0  0  0  0  0  0
    1.6180    3.9980    0.0570 C   0  0  0  0  0  0  0  0  0  0  0  0
    1.6780    2.6560   -0.0600 C   0  0  0  0  0  0  0  0  0  0  0  0
    0.3200    6.1530   -0.0310 C   0  0  2  0  0  0  0  0  0  0  0  0
   -1.8060    4.4360    1.0520 N   0  0  0  0  0  0  0  0  0  0  0  0
   -1.9690    1.6850    0.0440 C   0  0  0  0  0  0  0  0  0  0  0  0
    2.6550    2.2390   -0.2870 H   0  0  0  0  0  0  0  0  0  0  0  0
    2.5230    4.5830   -0.1090 H   0  0  0  0  0  0  0  0  0  0  0  0
   -3.3740    2.3110    0.0070 C   0  0  0  0  0  0  0  0  0  0  0  0
   -3.4560    3.0970   -0.7510 H   0  0  0  0  0  0  0  0  0  0  0  0
   -3.6840    2.6980    0.9810 H   0  0  0  0  0  0  0  0  0  0  0  0
   -4.1160    1.5480   -0.2580 H   0  0  0  0  0  0  0  0  0  0  0  0
   -1.9030    1.2510   -0.9670 H   0  0  0  0  0  0  0  0  0  0  0  0
   -1.9950    0.8700    0.7710 H   0  0  0  0  0  0  0  0  0  0  0  0
    1.1260    7.2730    0.5270 O   0  0  0  0  0  0  0  0  0  0  0  0
   -0.9110    8.1970    0.0030 C   0  0  0  0  0  0  0  0  0  0  0  0
   -1.0810    6.7460   -0.2610 C   0  0  0  0  0  0  0  0  0  0  0  0
    0.8720    9.9220   -0.2490 C   0  0  2  0  0  0  0  0  0  0  0  0
   -1.8840    6.4630    0.4080 H   0  0  0  0  0  0  0  0  0  0  0  0
   -1.1490    8.4000    1.0610 H   0  0  0  0  0  0  0  0  0  0  0  0
   -1.5770    8.7800   -0.6330 H   0  0  0  0  0  0  0  0  0  0  0  0
   -1.4090    6.5520   -1.2880 H   0  0  0  0  0  0  0  0  0  0  0  0
    0.8000    8.1250   -1.2710 H   0  0  0  0  0  0  0  0  0  0  0  0
    0.5700    8.3980   -0.2270 C   0  0  1  0  0  0  0  0  0  0  0  0
    0.7400    6.1060   -1.0530 H   0  0  0  0  0  0  0  0  0  0  0  0
   -2.2410    3.8250    1.7410 H   0  0  0  0  0  0  0  0  0  0  0  0
   -2.5230    4.5360    0.3340 H   0  0  0  0  0  0  0  0  0  0  0  0
    2.1150   10.7200    0.1170 C   0  0  0  0  0  0  0  0  0  0  0  0
    1.6670   12.1290   -0.3760 C   0  0  1  0  0  0  0  0  0  0  0  0
    0.1750   12.0720   -0.3880 N   0  0  0  0  0  0  0  0  0  0  0  0
   -0.1540   10.8500    0.2810 N   0  0  0  0  0  0  0  0  0  0  0  0
    2.0850   13.4350    0.3150 C   0  0  0  0  0  0  0  0  0  0  0  0
   -1.1010   10.5660    0.0270 H   0  0  0  0  0  0  0  0  0  0  0  0
   -0.1910   12.9080    0.0910 H   0  0  0  0  0  0  0  0  0  0  0  0
    2.9900   10.3730   -0.4420 H   0  0  0  0  0  0  0  0  0  0  0  0
    1.9880   12.2470   -1.4190 H   0  0  0  0  0  0  0  0  0  0  0  0
    2.3400   10.7010    1.1890 H   0  0  0  0  0  0  0  0  0  0  0  0
    0.8010   10.0620   -1.3460 H   0  0  0  0  0  0  0  0  0  0  0  0
    1.0490   14.3320    0.3400 O   0  0  0  0  0  0  0  0  0  0  0  0
    3.2010   13.7780    0.6490 O   0  0  0  0  0  0  0  0  0  0  0  0
    1.4410   15.2080    0.5310 H   0  0  0  0  0  0  0  0  0  0  0  0
  1  5  1  0  0  0  0
  2  1  1  0  0  0  0
  3  2  2  0  0  0  0
  4  2  1  6  0  0  0
  4 10  5  0  0  0  0
  6  4  5  0  0  0  0
  6  7  5  0  0  0  0
  6 13  1  6  0  0  0
  7 12  1  1  0  0  0
  8  7  5  0  0  0  0
  8  9  5  6  0  0  0
  8 11  1  0  0  0  0
  9 15  1  0  0  0  0
 10  9  5  0  0  0  0
 10 14  1  0  0  0  0
 11 24  1  0  0  0  0
 11 32  1  6  0  0  0
 12 33  1  0  0  0  0
 12 34  1  0  0  0  0
 13 20  1  0  0  0  0
 13 21  1  0  0  0  0
 16 17  1  0  0  0  0
 16 18  1  0  0  0  0
 16 19  1  0  0  0  0
 16 13  1  0  0  0  0
 22 11  1  0  0  0  0
 23 31  1  0  0  0  0
 23 28  1  0  0  0  0
 24 23  1  0  0  0  0
 24 29  1  0  0  0  0
 25 31  1  0  0  0  0
 25 38  1  0  0  0  0
 25 45  1  6  0  0  0
 26 24  1  0  0  0  0
 27 23  1  0  0  0  0
 31 22  1  0  0  0  0
 31 30  1  6  0  0  0
 35 25  1  0  0  0  0
 35 42  1  0  0  0  0
 35 44  1  0  0  0  0
 36 35  1  0  0  0  0
 36 43  1  6  0  0  0
 37 36  1  0  0  0  0
 38 37  1  0  0  0  0
 39 36  1  0  0  0  0
 39 47  2  0  0  0  0
 40 38  1  0  0  0  0
 41 37  1  0  0  0  0
 46 39  1  0  0  0  0
 48 46  1  0  0  0  0
M  END
