
 OpenBabel11042013053D

 33 34  0  0  1  0  0  0  0  0999 V2000
    1.2570   -0.2190   -0.0430 O   0  0  0  0  0  0  0  0  0  0  0  0
    0.0350    0.3570   -0.1030 C   0  0  0  0  0  0  0  0  0  0  0  0
   -0.9820   -0.3280   -0.1470 O   0  0  0  0  0  0  0  0  0  0  0  0
    0.0110    1.8430   -0.1310 C   0  0  1  0  0  0  0  0  0  0  0  0
    2.0060    0.4080    0.0070 H   0  0  0  0  0  0  0  0  0  0  0  0
   -1.1620    2.4580   -0.3900 C   0  0  0  0  0  0  0  0  0  0  0  0
   -1.2410    3.8040   -0.3960 C   0  0  0  0  0  0  0  0  0  0  0  0
   -0.1560    4.5760   -0.1260 C   0  0  2  0  0  0  0  0  0  0  0  0
    1.0140    3.9430    0.1550 C   0  0  2  0  0  0  0  0  0  0  0  0
    1.0920    2.5960    0.1340 C   0  0  1  0  0  0  0  0  0  0  0  0
   -0.2600    6.0770    0.0760 C   0  0  1  0  0  0  0  0  0  0  0  0
   -2.2160    4.2520   -0.5740 H   0  0  0  0  0  0  0  0  0  0  0  0
   -2.0640    1.8720   -0.5670 H   0  0  0  0  0  0  0  0  0  0  0  0
    2.2810    2.0060    0.4120 F   0  0  0  0  0  0  0  0  0  0  0  0
    2.1680    4.6870    0.5480 N   0  0  0  0  0  0  0  0  0  0  0  0
    0.5190    6.9010   -0.8350 O   0  0  0  0  0  0  0  0  0  0  0  0
   -1.1760    8.2500    0.0590 C   0  0  0  0  0  0  0  0  0  0  0  0
   -1.6000    6.7950    0.1140 C   0  0  0  0  0  0  0  0  0  0  0  0
    0.6810    9.4740   -0.8830 N   0  0  0  0  0  0  0  0  0  0  0  0
   -2.1680    6.5680    1.0200 H   0  0  0  0  0  0  0  0  0  0  0  0
   -1.3660    8.7910    0.9910 H   0  0  0  0  0  0  0  0  0  0  0  0
   -1.7210    8.7710   -0.7390 H   0  0  0  0  0  0  0  0  0  0  0  0
   -2.2200    6.5670   -0.7590 H   0  0  0  0  0  0  0  0  0  0  0  0
    0.9040    8.1450    0.7070 H   0  0  0  0  0  0  0  0  0  0  0  0
    0.3290    8.2050   -0.2280 C   0  0  2  0  0  0  0  0  0  0  0  0
    0.1700    6.2250    1.0800 H   0  0  0  0  0  0  0  0  0  0  0  0
    0.9980   10.2940    0.0190 N   0  0  0  0  0  0  0  0  0  0  0  0
    0.6690   11.5760   -0.2710 C   0  0  0  0  0  0  0  0  0  0  0  0
    2.3070    5.5710    0.0690 H   0  0  0  0  0  0  0  0  0  0  0  0
    3.0280    4.1650    0.6850 H   0  0  0  0  0  0  0  0  0  0  0  0
   -0.6670   11.7990   -0.2070 O   0  0  0  0  0  0  0  0  0  0  0  0
    1.4160   12.5320   -0.4320 O   0  0  0  0  0  0  0  0  0  0  0  0
   -0.7250   12.7720   -0.2840 H   0  0  0  0  0  0  0  0  0  0  0  0
  1  5  1  0  0  0  0
  2  1  1  0  0  0  0
  3  2  2  0  0  0  0
  4  2  1  1  0  0  0
  4 10  5  0  0  0  0
  6  4  5  0  0  0  0
  6  7  5  0  0  0  0
  6 13  1  0  0  0  0
  7 12  1  0  0  0  0
  8  7  5  1  0  0  0
  8 11  1  0  0  0  0
  9  8  5  0  0  0  0
  9 15  1  1  0  0  0
 10  9  5  0  0  0  0
 10 14  1  1  0  0  0
 11 18  1  0  0  0  0
 11 26  1  1  0  0  0
 15 29  1  0  0  0  0
 15 30  1  0  0  0  0
 16 11  1  0  0  0  0
 17 25  1  0  0  0  0
 17 22  1  0  0  0  0
 18 17  1  0  0  0  0
 18 23  1  0  0  0  0
 19 25  1  0  0  0  0
 20 18  1  0  0  0  0
 21 17  1  0  0  0  0
 25 16  1  0  0  0  0
 25 24  1  1  0  0  0
 27 19  2  0  0  0  0
 28 27  1  0  0  0  0
 28 32  2  0  0  0  0
 31 28  1  0  0  0  0
 33 31  1  0  0  0  0
M  END
