35

O          1.46600        0.95800       -0.09200
C          0.42200        1.73200       -0.46500
O         -0.57400        1.22500       -0.95200
C          0.59100        3.21700       -0.25300
H          2.18800        1.34600        0.43000
C         -0.46500        4.06600       -0.13300
C         -0.24700        5.41300        0.04200
C          1.04000        5.91500        0.12000
C          2.06800        5.02500        0.00700
C          1.83700        3.71700       -0.21000
C          1.30000        7.46900        0.35900
C         -2.64500        6.14000        0.26700
C         -1.79000        3.50100       -0.16700
H          2.70200        3.06900       -0.34700
C          3.45700        5.35100        0.14400
H         -2.88600        5.50600        1.12400
H         -3.03800        5.74900       -0.67500
H         -3.13000        7.10600        0.43600
O         -1.24500        6.37100        0.18300
C          2.64100        8.07900       -0.07400
C          2.38100        9.47700       -0.59400
N          0.93000        9.67200       -0.51200
N          0.31500        8.40500       -0.21400
C          3.16100       10.56300        0.14300
H         -0.13400        7.99300       -1.03600
H          0.71900       10.39200        0.19100
H          3.09100        7.53000       -0.90500
H          2.68700        9.54800       -1.64500
H          3.33300        8.08400        0.77700
H          1.22800        7.59100        1.45000
N         -2.87300        3.08400       -0.16600
N          4.59600        5.53800        0.25500
O          2.52500       11.75400        0.19900
O          4.29500       10.46500        0.59100
H          3.18900       12.36500        0.58300
