47

O          0.74100        1.95600       -0.07300
C         -0.28900        2.80800       -0.27100
O         -1.40100        2.40100       -0.57600
C          0.03600        4.25500       -0.05500
H          1.52700        2.35000        0.34000
C         -0.99300        5.04900        0.25400
C         -0.79300        6.36500        0.44700
C          0.42700        6.97200        0.33200
C          1.47700        6.14600        0.02200
C          1.26000        4.81200       -0.17000
C          0.38500        8.52600        0.56600
H         -1.67400        6.95800        0.68800
H         -2.00500        4.65300        0.34600
H          2.10200        4.17900       -0.44700
C          2.89600        6.62300       -0.13200
C          1.49500        9.62800        0.41800
C          0.86300       10.73800       -0.44200
N         -0.58700       10.48500       -0.28100
N         -0.72900        9.07000       -0.26100
C          1.06700       12.28800       -0.36500
H         -0.65500        8.68300       -1.20700
H         -0.87000       10.88800        0.62500
H          2.39800        9.25800       -0.06900
H          1.11600       10.47400       -1.48100
H          1.77200       10.00900        1.40800
H          0.06900        8.61100        1.61800
C          2.29000       13.07900        0.09900
C          1.76600       14.51000       -0.20400
N          0.35800       14.45200        0.24500
N          0.00400       13.03700        0.35000
C          2.48400       15.75800        0.24400
H         -0.89900       12.82700       -0.09100
H         -0.22300       14.94000       -0.44200
H          2.50200       12.94600        1.16800
H          1.76000       14.59600       -1.30200
H          3.18900       12.85200       -0.48000
H          0.93200       12.56400       -1.42600
C          1.88800       16.96700        0.32200
C          2.64400       18.21500        0.52300
H          0.82400       17.09400        0.15400
H          3.56300       15.69400        0.36800
H          2.96800        7.41300       -0.88000
H          3.56100        5.82200       -0.48200
H          3.29000        6.96300        0.83100
O          1.82300       19.27400        0.41000
O          3.84100       18.33600        0.70000
H          2.41000       20.05300        0.50900
