
 OpenBabel11042013033D

 38 39  0  0  1  0  0  0  0  0999 V2000
    0.6270   -0.5730    0.0680 O   0  0  0  0  0  0  0  0  0  0  0  0
   -0.3470    0.3210    0.2840 C   0  0  0  0  0  0  0  0  0  0  0  0
   -1.4440   -0.0770    0.6590 O   0  0  0  0  0  0  0  0  0  0  0  0
   -0.0210    1.7750    0.0330 C   0  0  1  0  0  0  0  0  0  0  0  0
    1.2990   -0.2430   -0.5360 H   0  0  0  0  0  0  0  0  0  0  0  0
   -1.1880    2.4810    0.0270 C   0  0  0  0  0  0  0  0  0  0  0  0
   -1.2340    3.8260   -0.0350 C   0  0  0  0  0  0  0  0  0  0  0  0
   -0.1130    4.5460   -0.1540 C   0  0  2  0  0  0  0  0  0  0  0  0
    1.0380    3.8290   -0.2580 C   0  0  0  0  0  0  0  0  0  0  0  0
    1.1430    2.4850   -0.1100 C   0  0  1  0  0  0  0  0  0  0  0  0
   -0.0480    6.0250   -0.0710 C   0  0  1  0  0  0  0  0  0  0  0  0
   -2.2150    4.2880    0.0500 H   0  0  0  0  0  0  0  0  0  0  0  0
   -2.1520    1.9790    0.1360 H   0  0  0  0  0  0  0  0  0  0  0  0
    2.6400    2.1660   -0.0430 C   0  0  0  0  0  0  0  0  0  0  0  0
    1.9520    4.3720   -0.4230 H   0  0  0  0  0  0  0  0  0  0  0  0
   -1.1580    6.8070   -0.1030 C   0  0  0  0  0  0  0  0  0  0  0  0
   -1.0780    8.1420    0.0450 C   0  0  0  0  0  0  0  0  0  0  0  0
    0.1150    8.7510    0.2000 C   0  0  2  0  0  0  0  0  0  0  0  0
    1.2200    7.9920    0.2440 C   0  0  0  0  0  0  0  0  0  0  0  0
    1.1370    6.6650    0.1160 C   0  0  0  0  0  0  0  0  0  0  0  0
    0.2340   10.1010    0.3130 N   0  0  0  0  0  0  0  0  0  0  0  0
   -1.9850    8.7410    0.0280 H   0  0  0  0  0  0  0  0  0  0  0  0
   -2.1510    6.3860   -0.2340 H   0  0  0  0  0  0  0  0  0  0  0  0
    2.0890    6.1520    0.1920 H   0  0  0  0  0  0  0  0  0  0  0  0
    2.1970    8.4590    0.3800 H   0  0  0  0  0  0  0  0  0  0  0  0
    0.0580   10.6920   -0.7720 N   0  0  0  0  0  0  0  0  0  0  0  0
    0.2200   12.0460   -0.5950 N   0  0  0  0  0  0  0  0  0  0  0  0
    3.2290    0.7920   -0.1690 C   0  0  0  0  0  0  0  0  0  0  0  0
    2.9660    0.3480   -1.1290 H   0  0  0  0  0  0  0  0  0  0  0  0
    2.9380    0.1660    0.6760 H   0  0  0  0  0  0  0  0  0  0  0  0
    4.3260    0.8670   -0.1510 H   0  0  0  0  0  0  0  0  0  0  0  0
    3.1540    2.7520   -0.8240 H   0  0  0  0  0  0  0  0  0  0  0  0
    3.0010    2.5840    0.9120 H   0  0  0  0  0  0  0  0  0  0  0  0
   -0.7960   12.5250   -0.0570 N   0  0  0  0  0  0  0  0  0  0  0  0
   -0.6410   13.8620    0.1210 C   0  0  0  0  0  0  0  0  0  0  0  0
   -1.8370   14.4800    0.1560 O   0  0  0  0  0  0  0  0  0  0  0  0
    0.3840   14.5230    0.2160 O   0  0  0  0  0  0  0  0  0  0  0  0
   -1.5750   15.4200    0.2120 H   0  0  0  0  0  0  0  0  0  0  0  0
  1  5  1  0  0  0  0
  2  1  1  0  0  0  0
  3  2  2  0  0  0  0
  4  2  1  1  0  0  0
  4 10  5  0  0  0  0
  6  4  5  0  0  0  0
  6  7  5  0  0  0  0
  6 13  1  0  0  0  0
  7 12  1  0  0  0  0
  8  7  5  1  0  0  0
  8 11  1  0  0  0  0
  9  8  5  0  0  0  0
  9 15  1  0  0  0  0
 10  9  5  0  0  0  0
 10 14  1  1  0  0  0
 11 16  5  1  0  0  0
 11 20  5  0  0  0  0
 14 32  1  0  0  0  0
 14 33  1  0  0  0  0
 16 17  5  0  0  0  0
 16 23  1  0  0  0  0
 17 22  1  0  0  0  0
 18 17  5  0  0  0  0
 18 21  1  1  0  0  0
 19 18  5  0  0  0  0
 19 25  1  0  0  0  0
 20 19  5  0  0  0  0
 20 24  1  0  0  0  0
 26 21  2  0  0  0  0
 27 26  1  0  0  0  0
 28 29  1  0  0  0  0
 28 30  1  0  0  0  0
 28 31  1  0  0  0  0
 28 14  1  0  0  0  0
 34 27  2  0  0  0  0
 35 34  1  0  0  0  0
 35 37  2  0  0  0  0
 36 35  1  0  0  0  0
 38 36  1  0  0  0  0
M  END
