39

O          1.46400       -0.43800       -0.22100
C          0.24500        0.14400       -0.24100
O         -0.77300       -0.52200       -0.36400
C          0.23200        1.62600       -0.07100
H          2.21800        0.17600       -0.12500
C         -0.97500        2.22800        0.03300
C         -1.05400        3.56000        0.21300
C          0.05900        4.32700        0.28500
C          1.25800        3.71800        0.17100
C          1.34200        2.38700       -0.00800
N         -0.00700        5.68100        0.51700
H         -2.03400        4.02600        0.30500
H         -1.89400        1.64600       -0.01500
F          2.56800        1.82900       -0.10900
H          2.17200        4.30200        0.22700
N         -0.61200        6.33800       -0.35600
C         -0.76100        7.74600        0.01700
C          0.52900        8.51700       -0.10600
N          0.03500        9.80100       -0.57600
N         -1.22700        9.63900       -1.11100
N         -1.63600        8.46300       -0.92700
C          0.27500       10.98000        0.23100
H          1.07200        8.59700        0.84000
H          1.19300        8.10800       -0.87400
H         -1.19300        7.84300        1.02300
C          1.54000       11.75200       -0.08400
C          1.24700       13.11600        0.53800
N         -0.23300       13.16800        0.70700
N         -0.72800       12.01300       -0.00400
C          1.74200       14.28500       -0.30800
H         -1.63300       11.67700        0.33000
H         -0.57000       14.04500        0.27900
H          2.42700       11.28300        0.35600
H          1.70300       13.20600        1.53000
H          1.70600       11.82800       -1.16800
H          0.24800       10.68100        1.28700
O          0.84600       15.29000       -0.42000
O          2.85100       14.39400       -0.80300
H          1.31000       15.97300       -0.94900
