33

O          1.53000       -0.29900        0.00000
C          0.31400        0.26800       -0.00000
O         -0.72000       -0.38100        0.00000
C          0.35100        1.73700        0.00000
H          2.25700        0.34200       -0.00000
C         -0.88200        2.26000        0.00000
C         -1.08500        3.58200        0.00000
C          0.00200        4.40800       -0.00000
C          1.24200        3.84300        0.00000
C          1.43300        2.52700        0.00000
C         -0.04900        5.85400       -0.00000
O         -2.43600        3.84300       -0.00000
H         -1.77000        1.65700       -0.00000
H          2.47100        2.21400       -0.00000
H          2.17800        4.39100        0.00000
H         -2.76600        4.73400       -0.00000
C         -1.21300        6.54400       -0.00000
C         -1.21800        7.86900       -0.00000
C         -0.04500        8.44900       -0.00000
C          1.14000        7.86700       -0.00000
C          1.11800        6.55500       -0.00000
C         -0.05800        9.77600        0.00000
H         -2.18100        8.39000        0.00000
H         -2.21700        6.19100        0.00000
H          2.12000        6.16400       -0.00000
H          2.06200        8.43900       -0.00000
C         -0.34700       10.90200        0.00000
C         -0.69700       12.27500       -0.00000
C         -0.59300       13.45200        0.00000
C         -0.40200       14.83600        0.00000
O         -1.58300       15.43600        0.00000
O          0.69400       15.36000        0.00000
H         -1.35700       16.37600       -0.00000
