22

O          0.21100        0.22300       -0.26000
C         -0.94200        0.91800       -0.33100
O         -1.99000        0.29500       -0.42100
C         -0.83600        2.43000       -0.23500
H          1.01400        0.77900       -0.26100
C         -1.97300        3.18000       -0.21500
C         -1.90000        4.52200       -0.08300
C         -0.71700        5.14300        0.04300
C          0.40900        4.40500        0.00600
C          0.38000        3.05700       -0.15300
C         -0.59200        6.61600        0.20600
F         -3.05000        5.23600       -0.06900
Cl        -3.59400        2.54500       -0.36600
C          2.78300        2.65800        0.27900
F          1.59600        5.03700        0.10100
H          3.52400        1.95400       -0.11500
H          3.11900        3.65000       -0.01900
H          2.75600        2.54700        1.36500
O          1.52600        2.28000       -0.27800
O         -1.74300        7.28900        0.04900
O          0.42800        7.22900        0.45900
H         -1.49900        8.22900        0.18700
