
 OpenBabel11042013053D

 22 22  0  0  1  0  0  0  0  0999 V2000
    0.2110    0.2230   -0.2600 O   0  0  0  0  0  0  0  0  0  0  0  0
   -0.9420    0.9180   -0.3310 C   0  0  0  0  0  0  0  0  0  0  0  0
   -1.9900    0.2950   -0.4210 O   0  0  0  0  0  0  0  0  0  0  0  0
   -0.8360    2.4300   -0.2350 C   0  0  1  0  0  0  0  0  0  0  0  0
    1.0140    0.7790   -0.2610 H   0  0  0  0  0  0  0  0  0  0  0  0
   -1.9730    3.1800   -0.2150 C   0  0  1  0  0  0  0  0  0  0  0  0
   -1.9000    4.5220   -0.0830 C   0  0  2  0  0  0  0  0  0  0  0  0
   -0.7170    5.1430    0.0430 C   0  0  1  0  0  0  0  0  0  0  0  0
    0.4090    4.4050    0.0060 C   0  0  1  0  0  0  0  0  0  0  0  0
    0.3800    3.0570   -0.1530 C   0  0  2  0  0  0  0  0  0  0  0  0
   -0.5920    6.6160    0.2060 C   0  0  0  0  0  0  0  0  0  0  0  0
   -3.0500    5.2360   -0.0690 F   0  0  0  0  0  0  0  0  0  0  0  0
   -3.5940    2.5450   -0.3660 Cl  0  0  0  0  0  0  0  0  0  0  0  0
    2.7830    2.6580    0.2790 C   0  0  0  0  0  0  0  0  0  0  0  0
    1.5960    5.0370    0.1010 F   0  0  0  0  0  0  0  0  0  0  0  0
    3.5240    1.9540   -0.1150 H   0  0  0  0  0  0  0  0  0  0  0  0
    3.1190    3.6500   -0.0190 H   0  0  0  0  0  0  0  0  0  0  0  0
    2.7560    2.5470    1.3650 H   0  0  0  0  0  0  0  0  0  0  0  0
    1.5260    2.2800   -0.2780 O   0  0  0  0  0  0  0  0  0  0  0  0
   -1.7430    7.2890    0.0490 O   0  0  0  0  0  0  0  0  0  0  0  0
    0.4280    7.2290    0.4590 O   0  0  0  0  0  0  0  0  0  0  0  0
   -1.4990    8.2290    0.1870 H   0  0  0  0  0  0  0  0  0  0  0  0
  1  5  1  0  0  0  0
  2  1  1  0  0  0  0
  3  2  2  0  0  0  0
  4  2  1  1  0  0  0
  4 10  5  0  0  0  0
  6  4  5  0  0  0  0
  6  7  5  0  0  0  0
  6 13  1  6  0  0  0
  7 12  1  1  0  0  0
  8  7  5  0  0  0  0
  8 11  1  6  0  0  0
  9  8  5  0  0  0  0
  9 15  1  6  0  0  0
 10  9  5  0  0  0  0
 10 19  1  6  0  0  0
 11 21  2  0  0  0  0
 14 16  1  0  0  0  0
 14 17  1  0  0  0  0
 14 18  1  0  0  0  0
 14 19  1  0  0  0  0
 20 11  1  0  0  0  0
 22 20  1  0  0  0  0
M  END
