35

O          0.83200        0.12700       -0.39400
C         -0.17600        0.84100        0.16000
O         -1.15200        0.25800        0.60100
C          0.03700        2.30700        0.09700
H          0.52200       -0.79800       -0.29600
C         -1.06000        3.06500       -0.10200
C         -0.96400        4.40100       -0.19600
C          0.22900        5.03000       -0.09200
C          1.32400        4.26000        0.11500
C          1.24300        2.91600        0.20500
C          0.39200        6.47200       -0.29700
H         -1.88100        4.95700       -0.38800
F         -2.28400        2.50900       -0.23300
N          2.45100        2.18800        0.42200
H          2.29500        4.73900        0.20400
H          3.31300        2.64400        0.14300
H          2.41500        1.21800        0.10500
C         -0.54800        7.40800       -0.07700
C         -0.45300        8.86100       -0.47100
H         -1.49900        7.09900        0.35000
H          1.34800        6.79000       -0.71100
O          0.64600        9.53000        0.15700
C         -1.23200       11.00700        0.19700
C         -1.71000        9.60900       -0.06300
C          1.06200       12.01100       -0.06200
H         -2.47900        9.56800       -0.84100
H         -1.39200       11.62400       -0.69400
H         -1.78200       11.48000        1.01800
H         -2.14900        9.20400        0.85700
H          0.39200       10.91500        1.62600
C          0.24400       10.85500        0.54100
H         -0.31100        8.93600       -1.55700
O          0.41400       13.20000        0.00300
O          2.18900       11.96500       -0.52800
H          1.02700       13.83900       -0.41700
