
 OpenBabel11042013053D

 34 35  0  0  1  0  0  0  0  0999 V2000
    1.2970   -0.2570   -0.0330 O   0  0  0  0  0  0  0  0  0  0  0  0
    0.0740    0.2760   -0.0980 C   0  0  0  0  0  0  0  0  0  0  0  0
   -0.9140   -0.4250   -0.2360 O   0  0  0  0  0  0  0  0  0  0  0  0
    0.0150    1.8220   -0.0400 C   0  0  2  0  0  0  0  0  0  0  0  0
    2.0800    0.3210   -0.0120 H   0  0  0  0  0  0  0  0  0  0  0  0
   -1.1700    2.4850   -0.1030 C   0  0  2  0  0  0  0  0  0  0  0  0
   -1.1490    3.8440   -0.1760 C   0  0  0  0  0  0  0  0  0  0  0  0
   -0.0010    4.5870   -0.1800 C   0  0  1  0  0  0  0  0  0  0  0  0
    1.1370    3.8930    0.0090 C   0  0  1  0  0  0  0  0  0  0  0  0
    1.1520    2.5560    0.0540 C   0  0  0  0  0  0  0  0  0  0  0  0
   -0.0530    6.1070   -0.4380 C   0  0  2  0  0  0  0  0  0  0  0  0
   -2.1050    4.3660   -0.2370 H   0  0  0  0  0  0  0  0  0  0  0  0
   -2.5480    1.8210    0.0670 C   0  0  0  0  0  0  0  0  0  0  0  0
    2.1420    2.1350    0.1900 H   0  0  0  0  0  0  0  0  0  0  0  0
    2.3220    4.5410    0.1250 F   0  0  0  0  0  0  0  0  0  0  0  0
   -3.2940    2.5730    0.3590 H   0  0  0  0  0  0  0  0  0  0  0  0
   -3.0010    1.2550   -0.7610 H   0  0  0  0  0  0  0  0  0  0  0  0
   -2.4630    1.1320    0.9100 H   0  0  0  0  0  0  0  0  0  0  0  0
    1.0830    6.9410   -0.1130 O   0  0  0  0  0  0  0  0  0  0  0  0
   -0.9030    8.2520    0.1420 C   0  0  0  0  0  0  0  0  0  0  0  0
   -1.2910    6.8100    0.0980 C   0  0  0  0  0  0  0  0  0  0  0  0
    1.0360    9.5220   -0.4190 N   0  0  0  0  0  0  0  0  0  0  0  0
   -2.1300    6.6620   -0.5890 H   0  0  0  0  0  0  0  0  0  0  0  0
   -1.3790    8.8240    0.9450 H   0  0  0  0  0  0  0  0  0  0  0  0
   -1.2160    8.7200   -0.8010 H   0  0  0  0  0  0  0  0  0  0  0  0
   -1.5950    6.4630    1.0910 H   0  0  0  0  0  0  0  0  0  0  0  0
    0.9330    8.3540    1.3230 H   0  0  0  0  0  0  0  0  0  0  0  0
    0.6140    8.2640    0.2780 C   0  0  2  0  0  0  0  0  0  0  0  0
   -0.0810    6.1630   -1.5320 H   0  0  0  0  0  0  0  0  0  0  0  0
    0.8490   10.4740    0.3880 N   0  0  0  0  0  0  0  0  0  0  0  0
    0.6050   11.7050   -0.1540 C   0  0  0  0  0  0  0  0  0  0  0  0
   -0.7040   12.0380   -0.0160 O   0  0  0  0  0  0  0  0  0  0  0  0
    1.4040   12.5400   -0.5440 O   0  0  0  0  0  0  0  0  0  0  0  0
   -0.7210   12.9940   -0.2280 H   0  0  0  0  0  0  0  0  0  0  0  0
  1  5  1  0  0  0  0
  2  1  1  0  0  0  0
  3  2  2  0  0  0  0
  4  2  1  6  0  0  0
  4 10  5  0  0  0  0
  6  4  5  0  0  0  0
  6  7  5  0  0  0  0
  6 13  1  1  0  0  0
  7 12  1  0  0  0  0
  8  7  5  6  0  0  0
  8 11  1  0  0  0  0
  9  8  5  0  0  0  0
  9 15  1  6  0  0  0
 10  9  5  0  0  0  0
 10 14  1  0  0  0  0
 11 21  1  0  0  0  0
 11 29  1  6  0  0  0
 13 16  1  0  0  0  0
 13 17  1  0  0  0  0
 13 18  1  0  0  0  0
 19 11  1  0  0  0  0
 20 28  1  0  0  0  0
 20 25  1  0  0  0  0
 21 20  1  0  0  0  0
 21 26  1  0  0  0  0
 22 28  1  0  0  0  0
 23 21  1  0  0  0  0
 24 20  1  0  0  0  0
 28 19  1  0  0  0  0
 28 27  1  1  0  0  0
 30 22  2  0  0  0  0
 31 30  1  0  0  0  0
 31 33  2  0  0  0  0
 32 31  1  0  0  0  0
 34 32  1  0  0  0  0
M  END
