
 OpenBabel11042013033D

 25 25  0  0  1  0  0  0  0  0999 V2000
    0.0430    0.4490    0.8410 O   0  0  0  0  0  0  0  0  0  0  0  0
   -0.6750    1.1150   -0.0870 C   0  0  0  0  0  0  0  0  0  0  0  0
   -1.4120    0.5430   -0.8730 O   0  0  0  0  0  0  0  0  0  0  0  0
   -0.5170    2.5860   -0.0310 C   0  0  2  0  0  0  0  0  0  0  0  0
    0.5440    1.0180    1.4520 H   0  0  0  0  0  0  0  0  0  0  0  0
   -1.7050    3.2280    0.0340 C   0  0  2  0  0  0  0  0  0  0  0  0
   -1.7750    4.5690    0.0530 C   0  0  0  0  0  0  0  0  0  0  0  0
   -0.6450    5.2970    0.0080 C   0  0  2  0  0  0  0  0  0  0  0  0
    0.5470    4.6680   -0.0380 C   0  0  1  0  0  0  0  0  0  0  0  0
    0.6480    3.3060   -0.0550 C   0  0  2  0  0  0  0  0  0  0  0  0
   -0.7340    6.7310    0.0100 C   0  0  0  0  0  0  0  0  0  0  0  0
   -2.7560    5.0420    0.1010 H   0  0  0  0  0  0  0  0  0  0  0  0
   -2.8700    2.5470    0.0990 F   0  0  0  0  0  0  0  0  0  0  0  0
    2.4210    1.5330   -0.3330 C   0  0  0  0  0  0  0  0  0  0  0  0
    1.7570    5.4450   -0.0810 C   0  0  0  0  0  0  0  0  0  0  0  0
    2.7300    6.0770   -0.1080 N   0  0  0  0  0  0  0  0  0  0  0  0
   -0.6840    7.9320   -0.0050 C   0  0  0  0  0  0  0  0  0  0  0  0
   -0.5140    9.3580   -0.0350 C   0  0  0  0  0  0  0  0  0  0  0  0
    3.4350    1.6290   -0.7360 H   0  0  0  0  0  0  0  0  0  0  0  0
    1.8230    0.9800   -1.0560 H   0  0  0  0  0  0  0  0  0  0  0  0
    2.5160    1.0050    0.6200 H   0  0  0  0  0  0  0  0  0  0  0  0
    1.9460    2.8360   -0.1000 O   0  0  0  0  0  0  0  0  0  0  0  0
   -1.6610   10.0560    0.0390 O   0  0  0  0  0  0  0  0  0  0  0  0
    0.5710    9.9030   -0.1180 O   0  0  0  0  0  0  0  0  0  0  0  0
   -1.3550   10.9850    0.0050 H   0  0  0  0  0  0  0  0  0  0  0  0
  1  5  1  0  0  0  0
  2  1  1  0  0  0  0
  3  2  2  0  0  0  0
  4  2  1  6  0  0  0
  4 10  5  0  0  0  0
  6  4  5  0  0  0  0
  6  7  5  0  0  0  0
  6 13  1  1  0  0  0
  7 12  1  0  0  0  0
  8  7  5  0  0  0  0
  8 11  1  1  0  0  0
  9  8  5  0  0  0  0
  9 15  1  6  0  0  0
 10  9  5  0  0  0  0
 10 22  1  6  0  0  0
 14 19  1  0  0  0  0
 14 20  1  0  0  0  0
 14 21  1  0  0  0  0
 14 22  1  0  0  0  0
 15 16  3  0  0  0  0
 17 11  3  0  0  0  0
 18 17  1  0  0  0  0
 18 24  2  0  0  0  0
 23 18  1  0  0  0  0
 25 23  1  0  0  0  0
M  END
