44

O          1.44700       -0.60500        0.12600
C          0.22700       -0.04100        0.21300
O         -0.78300       -0.73000        0.22000
C          0.20200        1.45800        0.22800
H          2.20500       -0.00400        0.05200
C         -1.02700        2.01600        0.18400
C         -1.20500        3.34600        0.09700
C         -0.13200        4.19000        0.04800
C          1.09500        3.61800        0.17400
C          1.26800        2.28700        0.26600
C         -0.15900        5.68100       -0.29800
Cl        -2.86500        3.84500       -0.03100
H         -1.90700        1.36700        0.17300
H          2.28700        1.92500        0.32500
H          1.98000        4.25300        0.15100
O          0.78500        6.55100        0.40800
C         -0.98200        7.92400       -0.31100
C         -1.44700        6.48800       -0.29900
C          1.29000        9.05700        0.25000
H         -2.02700        6.32800        0.61600
H         -1.29100        8.46400       -1.21200
H         -1.43900        8.42200        0.55000
H         -2.07200        6.27100       -1.17100
H          0.91600        7.70500       -1.25300
C          0.54100        7.82500       -0.22500
H          0.19800        5.67700       -1.34400
C          0.62800       10.17500        0.62100
C          0.68300       11.48500       -0.15000
H         -0.33000       10.02900        1.11400
H          2.27000        9.16800       -0.21400
O          1.64700       12.40700        0.35500
C         -0.38400       13.62000        0.02700
C         -0.68600       12.15900       -0.08000
C          1.71300       14.93800        0.01700
H         -1.31000       11.92100       -0.94800
H         -0.46600       14.09100       -0.95900
H         -1.08700       14.13600        0.69000
H         -1.25800       11.86400        0.80800
H          1.01900       13.80200        1.67100
C          1.03200       13.68000        0.58300
H          0.93100       11.28600       -1.20300
O          0.93400       16.03800        0.17800
O          2.80200       15.03400       -0.52500
H          1.42900       16.76900       -0.24900
