
 OpenBabel11042013053D

 44 46  0  0  1  0  0  0  0  0999 V2000
    0.2380   -0.0200   -0.5990 O   0  0  0  0  0  0  0  0  0  0  0  0
   -0.8250    0.7760   -0.8740 C   0  0  0  0  0  0  0  0  0  0  0  0
   -1.8700    0.2720   -1.2510 O   0  0  0  0  0  0  0  0  0  0  0  0
   -0.6230    2.2280   -0.5280 C   0  0  1  0  0  0  0  0  0  0  0  0
    1.0530    0.4930   -0.4240 H   0  0  0  0  0  0  0  0  0  0  0  0
   -1.7110    3.0220   -0.2760 C   0  0  1  0  0  0  0  0  0  0  0  0
   -1.4980    4.2700    0.2040 C   0  0  0  0  0  0  0  0  0  0  0  0
   -0.2530    4.7370    0.4340 C   0  0  2  0  0  0  0  0  0  0  0  0
    0.7770    4.0000    0.0060 C   0  0  0  0  0  0  0  0  0  0  0  0
    0.6370    2.7390   -0.4260 C   0  0  1  0  0  0  0  0  0  0  0  0
    0.1200    5.9670    1.2350 C   0  0  1  0  0  0  0  0  0  0  0  0
   -2.3710    4.8820    0.4600 H   0  0  0  0  0  0  0  0  0  0  0  0
   -3.5850    1.7600    0.4480 C   0  0  0  0  0  0  0  0  0  0  0  0
    3.0200    2.4740   -0.1980 C   0  0  0  0  0  0  0  0  0  0  0  0
    1.7620    4.4360    0.0970 H   0  0  0  0  0  0  0  0  0  0  0  0
   -2.8740    1.4460    1.2210 H   0  0  0  0  0  0  0  0  0  0  0  0
   -3.9600    0.8780   -0.0830 H   0  0  0  0  0  0  0  0  0  0  0  0
   -4.4470    2.2330    0.9330 H   0  0  0  0  0  0  0  0  0  0  0  0
   -3.0240    2.6650   -0.5000 O   0  0  0  0  0  0  0  0  0  0  0  0
    1.0940    6.9530    0.6100 C   0  0  0  0  0  0  0  0  0  0  0  0
    0.1510    7.8570    0.0300 N   0  0  0  0  0  0  0  0  0  0  0  0
   -1.0550    7.7740    0.7250 N   0  0  0  0  0  0  0  0  0  0  0  0
   -1.0580    6.7900    1.4920 N   0  0  0  0  0  0  0  0  0  0  0  0
    0.4000    9.1280   -0.4340 C   0  0  1  0  0  0  0  0  0  0  0  0
    1.6740    7.4560    1.3970 H   0  0  0  0  0  0  0  0  0  0  0  0
    1.7760    6.5650   -0.1520 H   0  0  0  0  0  0  0  0  0  0  0  0
    0.5300    5.6040    2.1860 H   0  0  0  0  0  0  0  0  0  0  0  0
   -0.6770    9.8000   -0.8990 C   0  0  0  0  0  0  0  0  0  0  0  0
   -0.6670   11.1330   -0.9660 C   0  0  0  0  0  0  0  0  0  0  0  0
    0.4370   11.7880   -0.5880 C   0  0  2  0  0  0  0  0  0  0  0  0
    1.5950   11.1270   -0.3480 C   0  0  0  0  0  0  0  0  0  0  0  0
    1.5790    9.7780   -0.2850 C   0  0  0  0  0  0  0  0  0  0  0  0
    0.3330   13.2390   -0.2720 C   0  0  0  0  0  0  0  0  0  0  0  0
   -1.6000   11.6350   -1.2000 H   0  0  0  0  0  0  0  0  0  0  0  0
   -1.6060    9.2740   -1.0970 H   0  0  0  0  0  0  0  0  0  0  0  0
    2.4860    9.2650    0.0200 H   0  0  0  0  0  0  0  0  0  0  0  0
    2.5050   11.6690   -0.0950 H   0  0  0  0  0  0  0  0  0  0  0  0
    2.9450    2.8780    0.8210 H   0  0  0  0  0  0  0  0  0  0  0  0
    3.3860    3.2390   -0.8910 H   0  0  0  0  0  0  0  0  0  0  0  0
    3.7400    1.6570   -0.1600 H   0  0  0  0  0  0  0  0  0  0  0  0
    1.7670    1.9530   -0.6620 O   0  0  0  0  0  0  0  0  0  0  0  0
   -0.9480   13.5890   -0.0270 O   0  0  0  0  0  0  0  0  0  0  0  0
    1.2550   14.0070   -0.0470 O   0  0  0  0  0  0  0  0  0  0  0  0
   -0.9020   14.4600    0.4080 H   0  0  0  0  0  0  0  0  0  0  0  0
  1  5  1  0  0  0  0
  2  1  1  0  0  0  0
  3  2  2  0  0  0  0
  4  2  1  1  0  0  0
  4 10  5  0  0  0  0
  6  4  5  0  0  0  0
  6  7  5  0  0  0  0
  6 19  1  6  0  0  0
  7 12  1  0  0  0  0
  8  7  5  1  0  0  0
  8 11  1  0  0  0  0
  9  8  5  0  0  0  0
  9 15  1  0  0  0  0
 10  9  5  0  0  0  0
 10 41  1  1  0  0  0
 11 23  1  0  0  0  0
 11 27  1  1  0  0  0
 13 16  1  0  0  0  0
 13 17  1  0  0  0  0
 13 18  1  0  0  0  0
 13 19  1  0  0  0  0
 14 38  1  0  0  0  0
 14 39  1  0  0  0  0
 14 40  1  0  0  0  0
 14 41  1  0  0  0  0
 20 11  1  0  0  0  0
 20 25  1  0  0  0  0
 20 26  1  0  0  0  0
 21 20  1  0  0  0  0
 22 21  1  0  0  0  0
 23 22  2  0  0  0  0
 24 21  1  1  0  0  0
 24 32  5  0  0  0  0
 28 24  5  0  0  0  0
 28 29  5  0  0  0  0
 28 35  1  0  0  0  0
 29 34  1  0  0  0  0
 30 29  5  0  0  0  0
 30 33  1  1  0  0  0
 31 30  5  0  0  0  0
 31 37  1  0  0  0  0
 32 31  5  0  0  0  0
 32 36  1  0  0  0  0
 33 43  2  0  0  0  0
 42 33  1  0  0  0  0
 44 42  1  0  0  0  0
M  END
