44

O          0.23800       -0.02000       -0.59900
C         -0.82500        0.77600       -0.87400
O         -1.87000        0.27200       -1.25100
C         -0.62300        2.22800       -0.52800
H          1.05300        0.49300       -0.42400
C         -1.71100        3.02200       -0.27600
C         -1.49800        4.27000        0.20400
C         -0.25300        4.73700        0.43400
C          0.77700        4.00000        0.00600
C          0.63700        2.73900       -0.42600
C          0.12000        5.96700        1.23500
H         -2.37100        4.88200        0.46000
C         -3.58500        1.76000        0.44800
C          3.02000        2.47400       -0.19800
H          1.76200        4.43600        0.09700
H         -2.87400        1.44600        1.22100
H         -3.96000        0.87800       -0.08300
H         -4.44700        2.23300        0.93300
O         -3.02400        2.66500       -0.50000
C          1.09400        6.95300        0.61000
N          0.15100        7.85700        0.03000
N         -1.05500        7.77400        0.72500
N         -1.05800        6.79000        1.49200
C          0.40000        9.12800       -0.43400
H          1.67400        7.45600        1.39700
H          1.77600        6.56500       -0.15200
H          0.53000        5.60400        2.18600
C         -0.67700        9.80000       -0.89900
C         -0.66700       11.13300       -0.96600
C          0.43700       11.78800       -0.58800
C          1.59500       11.12700       -0.34800
C          1.57900        9.77800       -0.28500
C          0.33300       13.23900       -0.27200
H         -1.60000       11.63500       -1.20000
H         -1.60600        9.27400       -1.09700
H          2.48600        9.26500        0.02000
H          2.50500       11.66900       -0.09500
H          2.94500        2.87800        0.82100
H          3.38600        3.23900       -0.89100
H          3.74000        1.65700       -0.16000
O          1.76700        1.95300       -0.66200
O         -0.94800       13.58900       -0.02700
O          1.25500       14.00700       -0.04700
H         -0.90200       14.46000        0.40800
