
 OpenBabel11042013053D

 32 33  0  0  1  0  0  0  0  0999 V2000
    1.1170   -0.1180   -0.1040 O   0  0  0  0  0  0  0  0  0  0  0  0
   -0.1040    0.4480   -0.0050 C   0  0  0  0  0  0  0  0  0  0  0  0
   -1.1150   -0.2380    0.0420 O   0  0  0  0  0  0  0  0  0  0  0  0
   -0.1290    1.9450    0.0310 C   0  0  1  0  0  0  0  0  0  0  0  0
    1.8710    0.4770   -0.2330 H   0  0  0  0  0  0  0  0  0  0  0  0
   -1.3410    2.5320   -0.0830 C   0  0  0  0  0  0  0  0  0  0  0  0
   -1.4580    3.8750   -0.0440 C   0  0  0  0  0  0  0  0  0  0  0  0
   -0.3580    4.6400    0.1120 C   0  0  1  0  0  0  0  0  0  0  0  0
    0.8580    4.0580    0.2260 C   0  0  2  0  0  0  0  0  0  0  0  0
    0.9670    2.7180    0.1900 C   0  0  0  0  0  0  0  0  0  0  0  0
   -0.4490    6.0520    0.1090 C   0  0  0  0  0  0  0  0  0  0  0  0
   -2.4440    4.3280   -0.1450 H   0  0  0  0  0  0  0  0  0  0  0  0
   -2.2440    1.9320   -0.2070 H   0  0  0  0  0  0  0  0  0  0  0  0
    1.9590    2.3010    0.3100 H   0  0  0  0  0  0  0  0  0  0  0  0
    2.0480    4.8230    0.3930 N   0  0  0  0  0  0  0  0  0  0  0  0
   -0.2280    7.2280   -0.0040 C   0  0  0  0  0  0  0  0  0  0  0  0
    0.1510    8.4710   -0.2760 N   0  0  0  0  0  0  0  0  0  0  0  0
   -0.5240    9.2700    0.3900 N   0  0  0  0  0  0  0  0  0  0  0  0
   -0.5860   10.5550   -0.2940 C   0  0  2  0  0  0  0  0  0  0  0  0
    0.6020   11.4280   -0.0130 C   0  0  0  0  0  0  0  0  0  0  0  0
   -0.0690   12.6840    0.1680 N   0  0  0  0  0  0  0  0  0  0  0  0
   -1.4070   12.5470    0.3570 N   0  0  0  0  0  0  0  0  0  0  0  0
   -1.7290   11.3440    0.2000 N   0  0  0  0  0  0  0  0  0  0  0  0
    0.5230   13.9080    0.0560 C   0  0  0  0  0  0  0  0  0  0  0  0
    1.3120   11.4740   -0.8460 H   0  0  0  0  0  0  0  0  0  0  0  0
    1.1440   11.1750    0.9040 H   0  0  0  0  0  0  0  0  0  0  0  0
   -0.7150   10.4090   -1.3760 H   0  0  0  0  0  0  0  0  0  0  0  0
    2.9560    4.4200    0.2140 H   0  0  0  0  0  0  0  0  0  0  0  0
    2.0180    5.8290    0.2790 H   0  0  0  0  0  0  0  0  0  0  0  0
   -0.3370   14.9370    0.1770 O   0  0  0  0  0  0  0  0  0  0  0  0
    1.7040   14.1220   -0.1670 O   0  0  0  0  0  0  0  0  0  0  0  0
    0.2160   15.7280    0.0320 H   0  0  0  0  0  0  0  0  0  0  0  0
  1  5  1  0  0  0  0
  2  1  1  0  0  0  0
  3  2  2  0  0  0  0
  4  2  1  1  0  0  0
  4 10  5  0  0  0  0
  6  4  5  0  0  0  0
  6  7  5  0  0  0  0
  6 13  1  0  0  0  0
  7 12  1  0  0  0  0
  8  7  5  0  0  0  0
  8 11  1  6  0  0  0
  9  8  5  0  0  0  0
  9 15  1  1  0  0  0
 10  9  5  0  0  0  0
 10 14  1  0  0  0  0
 15 28  1  0  0  0  0
 15 29  1  0  0  0  0
 16 11  3  0  0  0  0
 17 16  1  0  0  0  0
 18 17  2  0  0  0  0
 19 18  1  0  0  0  0
 19 23  1  0  0  0  0
 19 27  1  6  0  0  0
 20 19  1  0  0  0  0
 20 25  1  0  0  0  0
 20 26  1  0  0  0  0
 21 20  1  0  0  0  0
 22 21  1  0  0  0  0
 23 22  2  0  0  0  0
 24 21  1  0  0  0  0
 24 31  2  0  0  0  0
 30 24  1  0  0  0  0
 32 30  1  0  0  0  0
M  END
