20

O          1.13700        0.25300        0.01000
C          0.01000        0.98400       -0.02100
O         -1.08000        0.42600       -0.04000
C          0.15500        2.48300       -0.01600
H          1.97400        0.75300        0.01800
C         -1.03800        3.12300       -0.00700
C         -1.11900        4.46700        0.00000
C          0.00700        5.21500        0.00400
C          1.21300        4.58800       -0.00700
C          1.29200        3.22800       -0.02300
C         -0.07600        6.64600        0.01500
Cl        -2.71000        5.17700        0.00100
H         -1.97100        2.55600       -0.00600
Cl         2.87000        2.47100       -0.05600
Cl         2.68100        5.56100       -0.00200
C         -0.12600        7.84700        0.01400
C         -0.16300        9.28000        0.00900
O         -1.40500        9.79400        0.01200
O          0.83600        9.97800       -0.00300
H         -1.25400       10.76100       -0.00000
