34

O          0.84300       -0.17700       -0.60600
C         -0.34500        0.41100       -0.33600
O         -1.38700       -0.22400       -0.26900
C         -0.26500        1.89600       -0.19300
H          1.58000        0.47800       -0.59100
C         -1.38000        2.58700       -0.50700
C         -1.39400        3.93000       -0.41800
C         -0.29600        4.62400       -0.03300
C          0.83200        3.92100        0.26100
C          0.83600        2.56700        0.21000
C         -0.34400        6.11400        0.24900
H         -2.33100        4.43500       -0.64200
H         -2.28500        2.06600       -0.81700
N          2.03700        1.86900        0.61600
O          1.99400        4.57400        0.66400
H          2.69100        2.54500        1.02600
H          1.84000        1.17100        1.33900
O          0.57500        6.93200       -0.52500
C         -1.21600        8.30700        0.20500
C         -1.66100        6.86400        0.12300
C          0.74800        9.42500       -0.73000
H         -2.37800        6.60400        0.90600
H         -1.45100        8.76600        1.17100
H         -1.72800        8.89900       -0.56400
H         -2.12800        6.69400       -0.85400
H          0.80200        8.28200        0.98300
C          0.30100        8.24900        0.01100
H         -0.02600        6.20800        1.30200
C          0.81600       10.61100       -0.88400
C          0.60700       12.01800       -0.67500
H          2.03600        5.47600        0.29200
O         -0.69500       12.32200       -0.49000
O          1.49900       12.83000       -0.52100
H         -0.69000       13.25900       -0.21200
