27

O          0.82600        0.08400       -0.21100
C         -0.28400        0.83000       -0.05600
O         -1.33800        0.22700        0.13300
C         -0.22200        2.35200       -0.12300
H          1.73400        0.42400       -0.31300
C         -1.40700        3.02400       -0.08200
C         -1.44400        4.36600       -0.15900
C         -0.32300        5.10700       -0.22700
C          0.88600        4.47600       -0.22100
C          0.91100        3.11000       -0.17700
C         -0.50100        6.53100       -0.26300
H         -2.41100        4.86800       -0.16300
N         -2.68500        2.40000        0.06400
C          2.19500        2.49000       -0.15200
C          2.30200        6.44600        0.16200
H          1.79700        6.64400        1.11300
H          1.97800        7.11400       -0.63800
H          3.36800        6.63600        0.31100
O          2.13600        5.09600       -0.24300
N          3.14600        1.82300       -0.13400
H         -3.25500        2.81700        0.79900
H         -2.63400        1.38700        0.23200
C         -0.53700        7.73000       -0.21100
C         -0.33600        9.14500       -0.07300
O         -1.45000        9.89400       -0.11100
O          0.77200        9.63600        0.09900
H         -1.11100       10.80700        0.01800
