
 OpenBabel11042013053D

 35 36  0  0  1  0  0  0  0  0999 V2000
    1.3180    0.0680    0.0460 O   0  0  0  0  0  0  0  0  0  0  0  0
    0.1840    0.7840   -0.1520 C   0  0  0  0  0  0  0  0  0  0  0  0
   -0.8490    0.2100   -0.4600 O   0  0  0  0  0  0  0  0  0  0  0  0
    0.3280    2.2820   -0.0150 C   0  0  2  0  0  0  0  0  0  0  0  0
    2.0800    0.5300    0.4300 H   0  0  0  0  0  0  0  0  0  0  0  0
   -0.7780    3.0580    0.1980 C   0  0  2  0  0  0  0  0  0  0  0  0
   -0.6150    4.4140    0.2650 C   0  0  2  0  0  0  0  0  0  0  0  0
    0.6160    4.9680    0.1180 C   0  0  1  0  0  0  0  0  0  0  0  0
    1.6920    4.1870   -0.0790 C   0  0  0  0  0  0  0  0  0  0  0  0
    1.5470    2.8540   -0.1550 C   0  0  0  0  0  0  0  0  0  0  0  0
    0.7680    6.3880    0.1420 C   0  0  0  0  0  0  0  0  0  0  0  0
   -1.7110    5.3100    0.5030 C   0  0  0  0  0  0  0  0  0  0  0  0
   -3.2120    2.9930   -0.1210 C   0  0  0  0  0  0  0  0  0  0  0  0
    2.4470    2.2820   -0.3580 H   0  0  0  0  0  0  0  0  0  0  0  0
    2.6810    4.6280   -0.1960 H   0  0  0  0  0  0  0  0  0  0  0  0
   -2.5790    6.0650    0.6640 N   0  0  0  0  0  0  0  0  0  0  0  0
   -3.0710    3.5590   -1.0480 H   0  0  0  0  0  0  0  0  0  0  0  0
   -3.6560    3.6100    0.6650 H   0  0  0  0  0  0  0  0  0  0  0  0
   -3.9230    2.1890   -0.3270 H   0  0  0  0  0  0  0  0  0  0  0  0
   -2.0000    2.4120    0.3520 O   0  0  0  0  0  0  0  0  0  0  0  0
    0.6740    7.5800    0.1200 C   0  0  0  0  0  0  0  0  0  0  0  0
    0.4250    8.9800    0.0950 C   0  0  2  0  0  0  0  0  0  0  0  0
   -0.8430    9.4520    0.0870 C   0  0  0  0  0  0  0  0  0  0  0  0
   -1.0720   10.7800    0.0520 C   0  0  0  0  0  0  0  0  0  0  0  0
   -0.0320   11.6420    0.0240 C   0  0  1  0  0  0  0  0  0  0  0  0
    1.2320   11.1700    0.0300 C   0  0  0  0  0  0  0  0  0  0  0  0
    1.4590    9.8430    0.0640 C   0  0  0  0  0  0  0  0  0  0  0  0
   -0.1980   13.1180   -0.0160 C   0  0  0  0  0  0  0  0  0  0  0  0
   -2.1010   11.1350    0.0460 H   0  0  0  0  0  0  0  0  0  0  0  0
   -1.6920    8.7690    0.1070 H   0  0  0  0  0  0  0  0  0  0  0  0
    2.4800    9.4720    0.0680 H   0  0  0  0  0  0  0  0  0  0  0  0
    2.0820   11.8480    0.0070 H   0  0  0  0  0  0  0  0  0  0  0  0
   -1.4820   13.5180   -0.0180 O   0  0  0  0  0  0  0  0  0  0  0  0
    0.7030   13.9410   -0.0450 O   0  0  0  0  0  0  0  0  0  0  0  0
   -1.4100   14.4950   -0.0410 H   0  0  0  0  0  0  0  0  0  0  0  0
  1  5  1  0  0  0  0
  2  1  1  0  0  0  0
  3  2  2  0  0  0  0
  4  2  1  6  0  0  0
  4 10  5  0  0  0  0
  6  4  5  0  0  0  0
  6  7  5  0  0  0  0
  6 20  1  1  0  0  0
  7 12  1  1  0  0  0
  8  7  5  0  0  0  0
  8 11  1  6  0  0  0
  9  8  5  0  0  0  0
  9 15  1  0  0  0  0
 10  9  5  0  0  0  0
 10 14  1  0  0  0  0
 12 16  3  0  0  0  0
 13 17  1  0  0  0  0
 13 18  1  0  0  0  0
 13 19  1  0  0  0  0
 13 20  1  0  0  0  0
 21 11  3  0  0  0  0
 22 21  1  6  0  0  0
 22 27  5  0  0  0  0
 23 22  5  0  0  0  0
 23 24  5  0  0  0  0
 23 30  1  0  0  0  0
 24 29  1  0  0  0  0
 25 24  5  0  0  0  0
 25 28  1  6  0  0  0
 26 25  5  0  0  0  0
 26 32  1  0  0  0  0
 27 26  5  0  0  0  0
 27 31  1  0  0  0  0
 28 34  2  0  0  0  0
 33 28  1  0  0  0  0
 35 33  1  0  0  0  0
M  END
