
 OpenBabel11042013053D

 44 46  0  0  1  0  0  0  0  0999 V2000
    2.0700    0.8730   -0.5660 O   0  0  0  0  0  0  0  0  0  0  0  0
    0.9770    1.3420    0.0650 C   0  0  0  0  0  0  0  0  0  0  0  0
    0.2600    0.6020    0.7050 O   0  0  0  0  0  0  0  0  0  0  0  0
    0.8220    2.8210   -0.0650 C   0  0  1  0  0  0  0  0  0  0  0  0
    2.0280   -0.0860   -0.3700 H   0  0  0  0  0  0  0  0  0  0  0  0
   -0.3630    3.3850   -0.3800 C   0  0  1  0  0  0  0  0  0  0  0  0
   -0.5020    4.7430   -0.2730 C   0  0  1  0  0  0  0  0  0  0  0  0
    0.5680    5.5400    0.0540 C   0  0  2  0  0  0  0  0  0  0  0  0
    1.7640    4.9320    0.2610 C   0  0  0  0  0  0  0  0  0  0  0  0
    1.8880    3.5930    0.2260 C   0  0  0  0  0  0  0  0  0  0  0  0
    0.4500    7.0550    0.3330 C   0  0  1  0  0  0  0  0  0  0  0  0
   -2.6690    5.1560    0.5880 C   0  0  0  0  0  0  0  0  0  0  0  0
   -1.8140    2.3060   -0.9850 Br  0  0  0  0  0  0  0  0  0  0  0  0
    2.8470    3.1390    0.4630 H   0  0  0  0  0  0  0  0  0  0  0  0
    2.6400    5.5220    0.5310 H   0  0  0  0  0  0  0  0  0  0  0  0
    1.4910    8.1580    0.0080 C   0  0  0  0  0  0  0  0  0  0  0  0
    0.7130    9.4550    0.4230 C   0  0  2  0  0  0  0  0  0  0  0  0
   -0.7080    9.0190    0.3150 N   0  0  0  0  0  0  0  0  0  0  0  0
   -0.6790    7.7350   -0.2980 N   0  0  0  0  0  0  0  0  0  0  0  0
    1.0110   10.7950   -0.3330 C   0  0  2  0  0  0  0  0  0  0  0  0
   -1.5330    7.1990   -0.1420 H   0  0  0  0  0  0  0  0  0  0  0  0
   -1.2700    9.6530   -0.2510 H   0  0  0  0  0  0  0  0  0  0  0  0
    2.4160    8.0410    0.5820 H   0  0  0  0  0  0  0  0  0  0  0  0
    0.9210    9.6220    1.4880 H   0  0  0  0  0  0  0  0  0  0  0  0
    1.7410    8.1650   -1.0620 H   0  0  0  0  0  0  0  0  0  0  0  0
    0.3060    7.0760    1.4270 H   0  0  0  0  0  0  0  0  0  0  0  0
   -3.2890    4.2710    0.4320 H   0  0  0  0  0  0  0  0  0  0  0  0
   -2.1620    5.1060    1.5560 H   0  0  0  0  0  0  0  0  0  0  0  0
   -3.3420    6.0200    0.5960 H   0  0  0  0  0  0  0  0  0  0  0  0
   -1.7520    5.3340   -0.5000 O   0  0  0  0  0  0  0  0  0  0  0  0
    1.9380   11.6760    0.3620 O   0  0  0  0  0  0  0  0  0  0  0  0
    0.2450   13.1040   -0.4290 C   0  0  0  0  0  0  0  0  0  0  0  0
   -0.2330   11.6820   -0.4740 C   0  0  0  0  0  0  0  0  0  0  0  0
    2.2250   14.2370    0.5970 C   0  0  0  0  0  0  0  0  0  0  0  0
   -0.9170   11.5550    0.3740 H   0  0  0  0  0  0  0  0  0  0  0  0
    0.0190   13.6540   -1.3480 H   0  0  0  0  0  0  0  0  0  0  0  0
   -0.2690   13.6290    0.3880 H   0  0  0  0  0  0  0  0  0  0  0  0
   -0.7850   11.4590   -1.3920 H   0  0  0  0  0  0  0  0  0  0  0  0
    2.2730   13.0250   -1.1390 H   0  0  0  0  0  0  0  0  0  0  0  0
    1.7390   12.9970   -0.1820 C   0  0  1  0  0  0  0  0  0  0  0  0
    1.4400   10.5880   -1.3200 H   0  0  0  0  0  0  0  0  0  0  0  0
    1.6180   15.3800    0.1770 O   0  0  0  0  0  0  0  0  0  0  0  0
    3.0900   14.2950    1.4520 O   0  0  0  0  0  0  0  0  0  0  0  0
    1.9990   16.0910    0.7330 H   0  0  0  0  0  0  0  0  0  0  0  0
  1  5  1  0  0  0  0
  2  1  1  0  0  0  0
  3  2  2  0  0  0  0
  4  2  1  1  0  0  0
  4 10  5  0  0  0  0
  6  4  5  0  0  0  0
  6  7  5  0  0  0  0
  6 13  1  6  0  0  0
  7 30  1  6  0  0  0
  8  7  5  0  0  0  0
  8  9  5  1  0  0  0
  8 11  1  0  0  0  0
  9 15  1  0  0  0  0
 10  9  5  0  0  0  0
 10 14  1  0  0  0  0
 11 19  1  0  0  0  0
 11 26  1  1  0  0  0
 12 27  1  0  0  0  0
 12 28  1  0  0  0  0
 12 29  1  0  0  0  0
 12 30  1  0  0  0  0
 16 11  1  0  0  0  0
 16 23  1  0  0  0  0
 16 25  1  0  0  0  0
 17 16  1  0  0  0  0
 17 24  1  1  0  0  0
 18 17  1  0  0  0  0
 19 18  1  0  0  0  0
 20 17  1  0  0  0  0
 20 33  1  0  0  0  0
 20 41  1  6  0  0  0
 21 19  1  0  0  0  0
 22 18  1  0  0  0  0
 31 20  1  0  0  0  0
 32 40  1  0  0  0  0
 32 37  1  0  0  0  0
 33 32  1  0  0  0  0
 33 38  1  0  0  0  0
 34 40  1  0  0  0  0
 34 43  2  0  0  0  0
 35 33  1  0  0  0  0
 36 32  1  0  0  0  0
 40 31  1  0  0  0  0
 40 39  1  6  0  0  0
 42 34  1  0  0  0  0
 44 42  1  0  0  0  0
M  END
