25

O          0.67400        0.63300        0.29600
C         -0.61200        1.05000        0.31000
O         -1.48100        0.23200        0.56500
C         -0.86600        2.51800        0.03000
H          1.35500        1.30400        0.10500
C         -2.12300        3.06200       -0.04600
C         -2.24500        4.41200       -0.25500
C         -1.15200        5.19700       -0.41700
C          0.08000        4.64800       -0.40900
C          0.19900        3.32500       -0.17300
C         -1.22300        6.67400       -0.63100
Cl        -3.85500        5.11500       -0.37400
C         -3.41300        2.25100        0.05000
F          1.45500        2.82100       -0.16600
C          2.04200        5.72300        0.37500
H          2.60900        6.61800        0.10200
H          1.46700        5.94600        1.27800
H          2.75500        4.91600        0.56300
O          1.20700        5.39600       -0.72700
H         -4.02800        2.59500        0.89000
H         -3.30800        1.18000        0.18200
H         -3.98300        2.35400       -0.88200
O         -2.07400        7.29100        0.21100
O         -0.54900        7.34100       -1.39600
H         -2.03300        8.23100       -0.06400
