30

O          0.10300        0.17900        0.04000
C         -0.91600        1.06100       -0.00800
O         -2.08000        0.68200       -0.01000
C         -0.52200        2.51000        0.01500
H          0.97600        0.60900       -0.06100
C         -1.53800        3.36700        0.25300
C         -1.35500        4.70500        0.31300
C         -0.09300        5.19400        0.15600
C          0.91900        4.32600       -0.08300
C          0.73400        2.98200       -0.17600
N          0.18400        6.53800        0.30000
C         -2.56700        5.61200        0.52500
H         -2.53900        2.96300        0.40600
C          3.05200        2.32300        0.04800
F          2.16200        4.83700       -0.25400
N         -0.08800        7.26100       -0.68600
C          0.01900        8.58200       -0.34100
C         -3.80600        5.20000       -0.27100
H         -3.54900        4.91600       -1.29800
H         -4.31800        4.35600        0.20300
H         -4.52000        6.02800       -0.32000
H         -2.80900        5.65300        1.59400
H         -2.34500        6.63900        0.22300
H          3.64200        1.41700       -0.12000
H          3.02200        2.51100        1.12500
H          3.54200        3.13400       -0.49400
O          1.74200        2.06400       -0.45100
O         -1.18900        9.19200       -0.33600
O          1.02100        9.21700       -0.04600
H         -0.97100       10.09900       -0.04300
