
 OpenBabel11042013053D

 40 41  0  0  1  0  0  0  0  0999 V2000
    0.9070    0.0140   -0.6400 O   0  0  0  0  0  0  0  0  0  0  0  0
    0.2280    1.0850   -1.0650 C   0  0  0  0  0  0  0  0  0  0  0  0
   -0.6060    0.9530   -1.9550 O   0  0  0  0  0  0  0  0  0  0  0  0
    0.4870    2.4150   -0.4000 C   0  0  2  0  0  0  0  0  0  0  0  0
    1.2820    0.1270    0.2420 H   0  0  0  0  0  0  0  0  0  0  0  0
   -0.6710    3.1020   -0.3830 C   0  0  0  0  0  0  0  0  0  0  0  0
   -0.7480    4.4240   -0.1410 C   0  0  1  0  0  0  0  0  0  0  0  0
    0.4000    5.1070    0.0870 C   0  0  1  0  0  0  0  0  0  0  0  0
    1.5520    4.3820    0.2730 C   0  0  1  0  0  0  0  0  0  0  0  0
    1.6300    3.0300    0.0230 C   0  0  2  0  0  0  0  0  0  0  0  0
    0.4070    6.6410   -0.1010 C   0  0  2  0  0  0  0  0  0  0  0  0
   -3.1730    4.4030   -0.1320 C   0  0  0  0  0  0  0  0  0  0  0  0
   -1.5910    2.5790   -0.6520 H   0  0  0  0  0  0  0  0  0  0  0  0
    3.0570    2.4550    0.1680 C   0  0  0  0  0  0  0  0  0  0  0  0
    2.7130    5.0440    0.6610 O   0  0  0  0  0  0  0  0  0  0  0  0
   -3.3410    3.8130   -1.0380 H   0  0  0  0  0  0  0  0  0  0  0  0
   -3.2070    3.7750    0.7650 H   0  0  0  0  0  0  0  0  0  0  0  0
   -3.9780    5.1390   -0.0590 H   0  0  0  0  0  0  0  0  0  0  0  0
   -1.9430    5.1170   -0.2160 O   0  0  0  0  0  0  0  0  0  0  0  0
    1.4870    7.4170    0.4770 O   0  0  0  0  0  0  0  0  0  0  0  0
   -0.2750    8.9230    0.1140 C   0  0  0  0  0  0  0  0  0  0  0  0
   -0.8120    7.5100    0.2010 C   0  0  0  0  0  0  0  0  0  0  0  0
    1.9810    9.9700    0.5000 C   0  0  0  0  0  0  0  0  0  0  0  0
   -1.2040    7.3190    1.2060 H   0  0  0  0  0  0  0  0  0  0  0  0
   -0.5480    9.4910    1.0100 H   0  0  0  0  0  0  0  0  0  0  0  0
   -0.6860    9.4650   -0.7460 H   0  0  0  0  0  0  0  0  0  0  0  0
   -1.6190    7.3830   -0.5270 H   0  0  0  0  0  0  0  0  0  0  0  0
    1.4990    8.7190   -1.0980 H   0  0  0  0  0  0  0  0  0  0  0  0
    1.2330    8.7460   -0.0300 C   0  0  1  0  0  0  0  0  0  0  0  0
    0.5710    6.7140   -1.1900 H   0  0  0  0  0  0  0  0  0  0  0  0
    3.3610    1.0110    0.5330 C   0  0  0  0  0  0  0  0  0  0  0  0
    3.3120    0.3600   -0.3440 H   0  0  0  0  0  0  0  0  0  0  0  0
    4.3890    0.9350    0.9090 H   0  0  0  0  0  0  0  0  0  0  0  0
    2.7180    0.6470    1.3380 H   0  0  0  0  0  0  0  0  0  0  0  0
    3.5500    2.9930    0.9910 H   0  0  0  0  0  0  0  0  0  0  0  0
    3.6210    2.7100   -0.7400 H   0  0  0  0  0  0  0  0  0  0  0  0
    2.5270    5.7170    1.3440 H   0  0  0  0  0  0  0  0  0  0  0  0
    1.4350   11.1300    0.0590 O   0  0  0  0  0  0  0  0  0  0  0  0
    3.0050    9.9900    1.1630 O   0  0  0  0  0  0  0  0  0  0  0  0
    2.0220   11.8370    0.3970 H   0  0  0  0  0  0  0  0  0  0  0  0
  1  5  1  0  0  0  0
  2  1  1  0  0  0  0
  3  2  2  0  0  0  0
  4  2  1  6  0  0  0
  4 10  5  0  0  0  0
  6  4  5  0  0  0  0
  6  7  5  0  0  0  0
  6 13  1  0  0  0  0
  7 19  1  6  0  0  0
  8  7  5  0  0  0  0
  8 11  1  6  0  0  0
  9  8  5  0  0  0  0
  9 15  1  6  0  0  0
 10  9  5  0  0  0  0
 10 14  1  6  0  0  0
 11 22  1  0  0  0  0
 11 30  1  6  0  0  0
 12 16  1  0  0  0  0
 12 17  1  0  0  0  0
 12 18  1  0  0  0  0
 12 19  1  0  0  0  0
 14 35  1  0  0  0  0
 14 36  1  0  0  0  0
 15 37  1  0  0  0  0
 20 11  1  0  0  0  0
 21 29  1  0  0  0  0
 21 26  1  0  0  0  0
 22 21  1  0  0  0  0
 22 27  1  0  0  0  0
 23 29  1  0  0  0  0
 23 39  2  0  0  0  0
 24 22  1  0  0  0  0
 25 21  1  0  0  0  0
 29 20  1  0  0  0  0
 29 28  1  6  0  0  0
 31 32  1  0  0  0  0
 31 33  1  0  0  0  0
 31 34  1  0  0  0  0
 31 14  1  0  0  0  0
 38 23  1  0  0  0  0
 40 38  1  0  0  0  0
M  END
