40

O          0.90700        0.01400       -0.64000
C          0.22800        1.08500       -1.06500
O         -0.60600        0.95300       -1.95500
C          0.48700        2.41500       -0.40000
H          1.28200        0.12700        0.24200
C         -0.67100        3.10200       -0.38300
C         -0.74800        4.42400       -0.14100
C          0.40000        5.10700        0.08700
C          1.55200        4.38200        0.27300
C          1.63000        3.03000        0.02300
C          0.40700        6.64100       -0.10100
C         -3.17300        4.40300       -0.13200
H         -1.59100        2.57900       -0.65200
C          3.05700        2.45500        0.16800
O          2.71300        5.04400        0.66100
H         -3.34100        3.81300       -1.03800
H         -3.20700        3.77500        0.76500
H         -3.97800        5.13900       -0.05900
O         -1.94300        5.11700       -0.21600
O          1.48700        7.41700        0.47700
C         -0.27500        8.92300        0.11400
C         -0.81200        7.51000        0.20100
C          1.98100        9.97000        0.50000
H         -1.20400        7.31900        1.20600
H         -0.54800        9.49100        1.01000
H         -0.68600        9.46500       -0.74600
H         -1.61900        7.38300       -0.52700
H          1.49900        8.71900       -1.09800
C          1.23300        8.74600       -0.03000
H          0.57100        6.71400       -1.19000
C          3.36100        1.01100        0.53300
H          3.31200        0.36000       -0.34400
H          4.38900        0.93500        0.90900
H          2.71800        0.64700        1.33800
H          3.55000        2.99300        0.99100
H          3.62100        2.71000       -0.74000
H          2.52700        5.71700        1.34400
O          1.43500       11.13000        0.05900
O          3.00500        9.99000        1.16300
H          2.02200       11.83700        0.39700
