
 OpenBabel11042013053D

 43 45  0  0  1  0  0  0  0  0999 V2000
    0.6390    0.7020    0.2460 O   0  0  0  0  0  0  0  0  0  0  0  0
   -0.4660    1.4600    0.0800 C   0  0  0  0  0  0  0  0  0  0  0  0
   -1.5730    0.9550   -0.0550 O   0  0  0  0  0  0  0  0  0  0  0  0
   -0.2070    2.9450    0.0640 C   0  0  2  0  0  0  0  0  0  0  0  0
    1.4320    1.2730    0.3710 H   0  0  0  0  0  0  0  0  0  0  0  0
   -1.3220    3.6980    0.0050 C   0  0  0  0  0  0  0  0  0  0  0  0
   -1.2380    5.0350   -0.0670 C   0  0  0  0  0  0  0  0  0  0  0  0
   -0.0510    5.6990   -0.0800 C   0  0  1  0  0  0  0  0  0  0  0  0
    1.0660    4.9330    0.0330 C   0  0  0  0  0  0  0  0  0  0  0  0
    0.9940    3.5770    0.0910 C   0  0  2  0  0  0  0  0  0  0  0  0
   -0.0560    7.2220   -0.3210 C   0  0  2  0  0  0  0  0  0  0  0  0
   -2.1850    5.5600   -0.1520 H   0  0  0  0  0  0  0  0  0  0  0  0
   -2.3090    3.2390   -0.0130 H   0  0  0  0  0  0  0  0  0  0  0  0
    2.2180    2.8090    0.1350 N   0  0  0  0  0  0  0  0  0  0  0  0
    2.0370    5.4220    0.0230 H   0  0  0  0  0  0  0  0  0  0  0  0
    2.5390    2.6680   -0.8330 H   0  0  0  0  0  0  0  0  0  0  0  0
    2.9820    3.3720    0.5230 H   0  0  0  0  0  0  0  0  0  0  0  0
    1.0050    8.2610    0.1300 C   0  0  0  0  0  0  0  0  0  0  0  0
    0.3010    9.5600   -0.3430 C   0  0  1  0  0  0  0  0  0  0  0  0
   -1.1110    9.2930    0.0350 N   0  0  0  0  0  0  0  0  0  0  0  0
   -1.2740    7.8750    0.1970 N   0  0  0  0  0  0  0  0  0  0  0  0
    0.6950   11.0280   -0.0620 C   0  0  2  0  0  0  0  0  0  0  0  0
   -2.0880    7.5630   -0.3350 H   0  0  0  0  0  0  0  0  0  0  0  0
   -1.2910    9.7490    0.9360 H   0  0  0  0  0  0  0  0  0  0  0  0
    1.9660    8.1080   -0.3720 H   0  0  0  0  0  0  0  0  0  0  0  0
    0.3390    9.5170   -1.4440 H   0  0  0  0  0  0  0  0  0  0  0  0
    1.1630    8.2480    1.2160 H   0  0  0  0  0  0  0  0  0  0  0  0
   -0.0900    7.2890   -1.4220 H   0  0  0  0  0  0  0  0  0  0  0  0
   -0.2880   11.9660   -0.0010 C   0  0  0  0  0  0  0  0  0  0  0  0
   -0.0350   13.2750    0.1400 C   0  0  0  0  0  0  0  0  0  0  0  0
    1.2310   13.7410    0.2140 C   0  0  1  0  0  0  0  0  0  0  0  0
    2.2180   12.8170    0.1830 C   0  0  0  0  0  0  0  0  0  0  0  0
    1.9630   11.4870    0.0560 C   0  0  0  0  0  0  0  0  0  0  0  0
    1.5370   15.0940    0.2940 N   0  0  0  0  0  0  0  0  0  0  0  0
   -0.8810   13.9580    0.1640 H   0  0  0  0  0  0  0  0  0  0  0  0
   -1.3350   11.6920   -0.1080 H   0  0  0  0  0  0  0  0  0  0  0  0
    2.8050   10.8030    0.0060 H   0  0  0  0  0  0  0  0  0  0  0  0
    3.2490   13.1580    0.2390 H   0  0  0  0  0  0  0  0  0  0  0  0
    0.5980   15.8960    0.0660 N   0  0  0  0  0  0  0  0  0  0  0  0
    0.9800   17.2110    0.0820 C   0  0  0  0  0  0  0  0  0  0  0  0
   -0.0950   18.0260    0.0260 O   0  0  0  0  0  0  0  0  0  0  0  0
    2.1020   17.6990    0.1160 O   0  0  0  0  0  0  0  0  0  0  0  0
    0.3090   18.9190    0.0260 H   0  0  0  0  0  0  0  0  0  0  0  0
  1  5  1  0  0  0  0
  2  1  1  0  0  0  0
  3  2  2  0  0  0  0
  4  2  1  6  0  0  0
  4 10  5  0  0  0  0
  6  4  5  0  0  0  0
  6  7  5  0  0  0  0
  6 13  1  0  0  0  0
  7 12  1  0  0  0  0
  8  7  5  6  0  0  0
  8 11  1  0  0  0  0
  9  8  5  0  0  0  0
  9 15  1  0  0  0  0
 10  9  5  0  0  0  0
 10 14  1  6  0  0  0
 11 21  1  0  0  0  0
 11 28  1  6  0  0  0
 14 16  1  0  0  0  0
 14 17  1  0  0  0  0
 18 11  1  0  0  0  0
 18 25  1  0  0  0  0
 18 27  1  0  0  0  0
 19 18  1  0  0  0  0
 19 26  1  6  0  0  0
 20 19  1  0  0  0  0
 21 20  1  0  0  0  0
 22 19  1  0  0  0  0
 22 29  5  6  0  0  0
 22 33  5  0  0  0  0
 23 21  1  0  0  0  0
 24 20  1  0  0  0  0
 29 30  5  0  0  0  0
 29 36  1  0  0  0  0
 30 35  1  0  0  0  0
 31 30  5  0  0  0  0
 31 34  1  6  0  0  0
 32 31  5  0  0  0  0
 32 38  1  0  0  0  0
 33 32  5  0  0  0  0
 33 37  1  0  0  0  0
 39 34  2  0  0  0  0
 40 39  1  0  0  0  0
 40 42  2  0  0  0  0
 41 40  1  0  0  0  0
 43 41  1  0  0  0  0
M  END
