46

O          1.41300       -0.50500       -0.40700
C          0.23300        0.14100       -0.29500
O         -0.82600       -0.46900       -0.25700
C          0.33200        1.64300       -0.22000
H          2.14400        0.10800       -0.59800
C         -0.80200        2.28800       -0.55200
C         -0.92200        3.63000       -0.43600
C          0.12900        4.36000        0.04600
C          1.29700        3.70400        0.27200
C          1.41200        2.36400        0.16000
C          0.07700        5.83000        0.51500
C         -3.27000        3.90200       -0.12800
H         -1.66200        1.72500       -0.91100
N          2.69100        1.82900        0.49300
H          2.15300        4.28200        0.62200
O          0.92600        6.71400       -0.27300
C         -1.26600        7.27400       -0.72800
C         -1.27700        6.52700        0.58300
C          0.28700        9.03800        0.38500
H         -1.28300        7.22900        1.42600
H         -2.09100        7.97100       -0.86000
H         -1.31700        6.57000       -1.56900
H         -2.13800        5.89700        0.76800
H          0.48700        8.20200       -1.65100
C          0.12800        7.88000       -0.66900
H          0.48700        5.83400        1.53500
O          1.37300        9.93100        0.03900
C         -0.65800       11.11800       -0.33700
C         -0.92100        9.94700        0.56500
C          1.47200       12.46100        0.15700
H         -0.95700       10.28900        1.60600
H         -1.14300       12.01500        0.05600
H         -1.08300       10.94100       -1.33200
H         -1.89800        9.50500        0.37100
H          1.13000       11.22900       -1.50800
C          0.85700       11.18000       -0.44700
H          0.55900        8.59600        1.35100
H          3.36800        1.88700       -0.26800
H          2.72100        0.92200        0.94500
H         -3.05600        3.66600        0.92000
H         -3.92700        4.77900       -0.14600
H         -3.79500        3.07900       -0.61800
O         -2.08900        4.25500       -0.84800
O          0.61400       13.50700        0.20800
O          2.63400       12.63400        0.49200
H          1.14800       14.25100        0.55600
