
 OpenBabel11042013053D

 34 35  0  0  1  0  0  0  0  0999 V2000
    1.2540   -0.1680   -0.1810 O   0  0  0  0  0  0  0  0  0  0  0  0
    0.0690    0.4720   -0.3010 C   0  0  0  0  0  0  0  0  0  0  0  0
   -0.9570   -0.1650   -0.5140 O   0  0  0  0  0  0  0  0  0  0  0  0
    0.1220    1.9710   -0.1480 C   0  0  1  0  0  0  0  0  0  0  0  0
    2.0020    0.4630   -0.1270 H   0  0  0  0  0  0  0  0  0  0  0  0
   -1.0430    2.6400    0.0560 C   0  0  2  0  0  0  0  0  0  0  0  0
   -1.0220    3.9730    0.2070 C   0  0  0  0  0  0  0  0  0  0  0  0
    0.1150    4.7030    0.1280 C   0  0  2  0  0  0  0  0  0  0  0  0
    1.2660    4.0290   -0.0830 C   0  0  0  0  0  0  0  0  0  0  0  0
    1.2790    2.6780   -0.1880 C   0  0  1  0  0  0  0  0  0  0  0  0
    0.0100    6.1970    0.3540 C   0  0  1  0  0  0  0  0  0  0  0  0
   -1.9650    4.4630    0.4240 H   0  0  0  0  0  0  0  0  0  0  0  0
   -2.3250    2.0330    0.1490 N   0  0  0  0  0  0  0  0  0  0  0  0
    2.5070    2.0270   -0.2990 O   0  0  0  0  0  0  0  0  0  0  0  0
    2.1950    4.5940   -0.1350 H   0  0  0  0  0  0  0  0  0  0  0  0
   -2.4070    1.1150   -0.2850 H   0  0  0  0  0  0  0  0  0  0  0  0
   -3.1430    2.6140    0.0090 H   0  0  0  0  0  0  0  0  0  0  0  0
    0.9420    7.0510   -0.3470 O   0  0  0  0  0  0  0  0  0  0  0  0
   -1.0340    8.2990   -0.0950 C   0  0  0  0  0  0  0  0  0  0  0  0
   -1.3400    6.8290    0.0050 C   0  0  0  0  0  0  0  0  0  0  0  0
    0.9270    9.6120   -0.5710 N   0  0  0  0  0  0  0  0  0  0  0  0
   -2.1080    6.6300    0.7580 H   0  0  0  0  0  0  0  0  0  0  0  0
   -1.5460    8.8900    0.6710 H   0  0  0  0  0  0  0  0  0  0  0  0
   -1.3600    8.6800   -1.0720 H   0  0  0  0  0  0  0  0  0  0  0  0
   -1.7070    6.4710   -0.9660 H   0  0  0  0  0  0  0  0  0  0  0  0
    0.7330    8.4180    1.1410 H   0  0  0  0  0  0  0  0  0  0  0  0
    0.4820    8.3670    0.0710 C   0  0  2  0  0  0  0  0  0  0  0  0
    0.2070    6.3380    1.4290 H   0  0  0  0  0  0  0  0  0  0  0  0
    1.0380   10.5010    0.3140 N   0  0  0  0  0  0  0  0  0  0  0  0
    0.5910   11.7200   -0.1010 C   0  0  0  0  0  0  0  0  0  0  0  0
    3.2560    2.6200   -0.0950 H   0  0  0  0  0  0  0  0  0  0  0  0
   -0.7560   11.8150   -0.0180 O   0  0  0  0  0  0  0  0  0  0  0  0
    1.2520   12.7000   -0.3990 O   0  0  0  0  0  0  0  0  0  0  0  0
   -0.9270   12.7540   -0.2310 H   0  0  0  0  0  0  0  0  0  0  0  0
  1  5  1  0  0  0  0
  2  1  1  0  0  0  0
  3  2  2  0  0  0  0
  4  2  1  1  0  0  0
  4 10  5  0  0  0  0
  6  4  5  0  0  0  0
  6  7  5  0  0  0  0
  6 13  1  1  0  0  0
  7 12  1  0  0  0  0
  8  7  5  1  0  0  0
  8 11  1  0  0  0  0
  9  8  5  0  0  0  0
  9 15  1  0  0  0  0
 10  9  5  0  0  0  0
 10 14  1  1  0  0  0
 11 20  1  0  0  0  0
 11 28  1  1  0  0  0
 13 16  1  0  0  0  0
 13 17  1  0  0  0  0
 14 31  1  0  0  0  0
 18 11  1  0  0  0  0
 19 27  1  0  0  0  0
 19 24  1  0  0  0  0
 20 19  1  0  0  0  0
 20 25  1  0  0  0  0
 21 27  1  0  0  0  0
 22 20  1  0  0  0  0
 23 19  1  0  0  0  0
 27 18  1  0  0  0  0
 27 26  1  1  0  0  0
 29 21  2  0  0  0  0
 30 29  1  0  0  0  0
 30 33  2  0  0  0  0
 32 30  1  0  0  0  0
 34 32  1  0  0  0  0
M  END
