33

O          0.08700       -0.11400        0.91200
C         -0.82100        0.48100        0.09700
O         -1.73600       -0.14800       -0.41100
C         -0.67100        1.96100        0.00500
H          0.88600        0.44600        1.06200
C         -1.76100        2.76100        0.05500
C         -1.57800        4.09900        0.10300
C         -0.34200        4.64800        0.08800
C          0.72500        3.82500       -0.03000
C          0.58100        2.48100       -0.08800
N         -0.14700        5.99700        0.27400
H         -2.44700        4.75400        0.18700
C         -3.10400        2.27000        0.09200
C          2.94800        1.96400       -0.51200
H          1.71200        4.27900       -0.04300
N         -4.22300        1.95600        0.11300
N         -0.90400        6.76600       -0.35700
C         -0.92100        8.10000        0.25100
H          3.54200        1.04300       -0.51400
H          3.01500        2.40800       -1.50900
H          3.35400        2.62300        0.25600
O          1.62200        1.57800       -0.19400
C          0.33200        8.88200       -0.01500
N         -0.23600       10.19800       -0.08800
N         -1.56900       10.16800       -0.36800
N         -1.97100        8.97100       -0.32300
C          0.47100       11.35600        0.05300
H          0.79600        8.65500       -0.98100
H          1.08100        8.80100        0.77800
H         -1.11800        8.02100        1.32900
O         -0.28000       12.47200       -0.02200
O          1.67300       11.44300        0.25900
H          0.36200       13.19600        0.11600
