
 OpenBabel11042013053D

 28 28  0  0  1  0  0  0  0  0999 V2000
    0.6300    0.4070    0.8590 O   0  0  0  0  0  0  0  0  0  0  0  0
   -0.0170    1.0970   -0.1040 C   0  0  0  0  0  0  0  0  0  0  0  0
   -0.6770    0.5430   -0.9700 O   0  0  0  0  0  0  0  0  0  0  0  0
    0.1420    2.5780    0.0040 C   0  0  2  0  0  0  0  0  0  0  0  0
    1.1230    0.9710    1.4800 H   0  0  0  0  0  0  0  0  0  0  0  0
   -1.0300    3.2620    0.0910 C   0  0  2  0  0  0  0  0  0  0  0  0
   -1.0430    4.6130    0.0590 C   0  0  1  0  0  0  0  0  0  0  0  0
    0.1170    5.3120    0.0090 C   0  0  1  0  0  0  0  0  0  0  0  0
    1.2640    4.6050   -0.0160 C   0  0  0  0  0  0  0  0  0  0  0  0
    1.3300    3.2470   -0.0300 C   0  0  2  0  0  0  0  0  0  0  0  0
    0.2340    6.6830   -0.0990 N   0  0  0  0  0  0  0  0  0  0  0  0
   -2.2750    5.2630    0.0270 O   0  0  0  0  0  0  0  0  0  0  0  0
   -2.2480    2.5980    0.2230 O   0  0  0  0  0  0  0  0  0  0  0  0
    2.7670    2.7340   -0.1380 C   0  0  0  0  0  0  0  0  0  0  0  0
    2.1910    5.1750   -0.0650 H   0  0  0  0  0  0  0  0  0  0  0  0
   -2.8320    4.9030   -0.6870 H   0  0  0  0  0  0  0  0  0  0  0  0
   -2.9470    3.1890    0.5580 H   0  0  0  0  0  0  0  0  0  0  0  0
    3.1340    1.2790   -0.3790 C   0  0  0  0  0  0  0  0  0  0  0  0
    2.4950    0.7990   -1.1220 H   0  0  0  0  0  0  0  0  0  0  0  0
    3.1230    0.7080    0.5540 H   0  0  0  0  0  0  0  0  0  0  0  0
    4.1650    1.2300   -0.7510 H   0  0  0  0  0  0  0  0  0  0  0  0
    3.2980    3.0490    0.7730 H   0  0  0  0  0  0  0  0  0  0  0  0
    3.2340    3.2880   -0.9650 H   0  0  0  0  0  0  0  0  0  0  0  0
   -0.6490    7.4060    0.4060 N   0  0  0  0  0  0  0  0  0  0  0  0
   -0.4250    8.7280    0.1220 C   0  0  0  0  0  0  0  0  0  0  0  0
   -1.5650    9.4480    0.1990 O   0  0  0  0  0  0  0  0  0  0  0  0
    0.6190    9.2940   -0.1780 O   0  0  0  0  0  0  0  0  0  0  0  0
   -1.2620   10.3430   -0.0520 H   0  0  0  0  0  0  0  0  0  0  0  0
  1  5  1  0  0  0  0
  2  1  1  0  0  0  0
  3  2  2  0  0  0  0
  4  2  1  6  0  0  0
  4 10  5  0  0  0  0
  6  4  5  0  0  0  0
  6  7  5  0  0  0  0
  6 13  1  1  0  0  0
  7 12  1  6  0  0  0
  8  7  5  0  0  0  0
  8 11  1  6  0  0  0
  9  8  5  0  0  0  0
  9 15  1  0  0  0  0
 10  9  5  0  0  0  0
 10 14  1  6  0  0  0
 12 16  1  0  0  0  0
 13 17  1  0  0  0  0
 14 22  1  0  0  0  0
 14 23  1  0  0  0  0
 18 19  1  0  0  0  0
 18 20  1  0  0  0  0
 18 21  1  0  0  0  0
 18 14  1  0  0  0  0
 24 11  2  0  0  0  0
 25 24  1  0  0  0  0
 25 27  2  0  0  0  0
 26 25  1  0  0  0  0
 28 26  1  0  0  0  0
M  END
