
 OpenBabel11042013033D

 34 35  0  0  1  0  0  0  0  0999 V2000
    1.5160    0.3460    0.1000 O   0  0  0  0  0  0  0  0  0  0  0  0
    0.3640    1.0340    0.2290 C   0  0  0  0  0  0  0  0  0  0  0  0
   -0.6970    0.4280    0.3110 O   0  0  0  0  0  0  0  0  0  0  0  0
    0.4580    2.5400    0.1980 C   0  0  1  0  0  0  0  0  0  0  0  0
    2.3190    0.8960    0.0630 H   0  0  0  0  0  0  0  0  0  0  0  0
   -0.7410    3.1370    0.0510 C   0  0  0  0  0  0  0  0  0  0  0  0
   -0.8550    4.4560   -0.0970 C   0  0  2  0  0  0  0  0  0  0  0  0
    0.2200    5.3010   -0.0810 C   0  0  1  0  0  0  0  0  0  0  0  0
    1.4320    4.7120    0.2140 C   0  0  2  0  0  0  0  0  0  0  0  0
    1.5410    3.3460    0.3040 C   0  0  2  0  0  0  0  0  0  0  0  0
   -0.0250    6.8240   -0.4150 C   0  0  2  0  0  0  0  0  0  0  0  0
   -2.2090    4.9060   -0.2540 N   0  0  0  0  0  0  0  0  0  0  0  0
   -1.6470    2.5260    0.0030 H   0  0  0  0  0  0  0  0  0  0  0  0
    3.1270    2.6250    0.5560 Cl  0  0  0  0  0  0  0  0  0  0  0  0
    2.6600    5.5390    0.5320 C   0  0  0  0  0  0  0  0  0  0  0  0
   -2.6380    4.9480    0.6770 H   0  0  0  0  0  0  0  0  0  0  0  0
   -2.3220    5.8300   -0.6450 H   0  0  0  0  0  0  0  0  0  0  0  0
    3.2590    5.0970    1.3360 H   0  0  0  0  0  0  0  0  0  0  0  0
    2.3980    6.5120    0.9570 H   0  0  0  0  0  0  0  0  0  0  0  0
    3.2960    5.6550   -0.3500 H   0  0  0  0  0  0  0  0  0  0  0  0
    1.0450    7.8850   -0.7810 C   0  0  0  0  0  0  0  0  0  0  0  0
    0.7840    9.0650    0.1520 C   0  0  2  0  0  0  0  0  0  0  0  0
   -0.6300    8.9050    0.5310 N   0  0  0  0  0  0  0  0  0  0  0  0
   -0.8440    7.4880    0.6170 N   0  0  0  0  0  0  0  0  0  0  0  0
    1.0320   10.4480   -0.4560 C   0  0  0  0  0  0  0  0  0  0  0  0
   -1.8320    7.2600    0.5020 H   0  0  0  0  0  0  0  0  0  0  0  0
   -1.2090    9.3830   -0.1720 H   0  0  0  0  0  0  0  0  0  0  0  0
    2.0840    7.5700   -0.7250 H   0  0  0  0  0  0  0  0  0  0  0  0
    1.3930    8.9980    1.0600 H   0  0  0  0  0  0  0  0  0  0  0  0
    0.9010    8.1980   -1.8260 H   0  0  0  0  0  0  0  0  0  0  0  0
   -0.6200    6.7870   -1.3440 H   0  0  0  0  0  0  0  0  0  0  0  0
   -0.0440   11.2720   -0.4250 O   0  0  0  0  0  0  0  0  0  0  0  0
    2.0900   10.8520   -0.9120 O   0  0  0  0  0  0  0  0  0  0  0  0
    0.2990   12.1520   -0.6870 H   0  0  0  0  0  0  0  0  0  0  0  0
  1  5  1  0  0  0  0
  2  1  1  0  0  0  0
  3  2  2  0  0  0  0
  4  2  1  1  0  0  0
  4 10  5  0  0  0  0
  6  4  5  0  0  0  0
  6  7  5  0  0  0  0
  6 13  1  0  0  0  0
  7 12  1  1  0  0  0
  8  7  5  0  0  0  0
  8 11  1  6  0  0  0
  9  8  5  0  0  0  0
  9 15  1  1  0  0  0
 10  9  5  0  0  0  0
 10 14  1  6  0  0  0
 11 24  1  0  0  0  0
 11 31  1  6  0  0  0
 12 16  1  0  0  0  0
 12 17  1  0  0  0  0
 15 18  1  0  0  0  0
 15 19  1  0  0  0  0
 15 20  1  0  0  0  0
 21 11  1  0  0  0  0
 21 28  1  0  0  0  0
 21 30  1  0  0  0  0
 22 21  1  0  0  0  0
 22 29  1  1  0  0  0
 23 22  1  0  0  0  0
 24 23  1  0  0  0  0
 25 22  1  0  0  0  0
 25 33  2  0  0  0  0
 26 24  1  0  0  0  0
 27 23  1  0  0  0  0
 32 25  1  0  0  0  0
 34 32  1  0  0  0  0
M  END
