
 OpenBabel11042013053D

 23 23  0  0  1  0  0  0  0  0999 V2000
    1.0970    0.0380    0.0070 O   0  0  0  0  0  0  0  0  0  0  0  0
   -0.0380    0.7640    0.0620 C   0  0  0  0  0  0  0  0  0  0  0  0
   -1.1300    0.2200    0.1150 O   0  0  0  0  0  0  0  0  0  0  0  0
    0.1260    2.2520    0.0380 C   0  0  1  0  0  0  0  0  0  0  0  0
    1.9470    0.4930   -0.1040 H   0  0  0  0  0  0  0  0  0  0  0  0
   -1.0000    2.9990   -0.0110 C   0  0  0  0  0  0  0  0  0  0  0  0
   -0.9330    4.3440   -0.0510 C   0  0  1  0  0  0  0  0  0  0  0  0
    0.2550    4.9990   -0.0520 C   0  0  1  0  0  0  0  0  0  0  0  0
    1.3790    4.2390    0.0090 C   0  0  1  0  0  0  0  0  0  0  0  0
    1.3140    2.8890    0.0620 C   0  0  0  0  0  0  0  0  0  0  0  0
    0.4220    6.3650   -0.1310 N   0  0  0  0  0  0  0  0  0  0  0  0
   -2.0990    5.0260   -0.1060 F   0  0  0  0  0  0  0  0  0  0  0  0
   -1.9840    2.5310   -0.0250 H   0  0  0  0  0  0  0  0  0  0  0  0
    2.2540    2.3540    0.1220 H   0  0  0  0  0  0  0  0  0  0  0  0
    2.6700    4.8510    0.0110 C   0  0  0  0  0  0  0  0  0  0  0  0
   -0.5460    7.1320   -0.0210 N   0  0  0  0  0  0  0  0  0  0  0  0
   -0.0530    8.4240   -0.1320 N   0  0  0  0  0  0  0  0  0  0  0  0
   -0.9400    9.2430    0.1640 N   0  0  0  0  0  0  0  0  0  0  0  0
   -0.4710   10.5240    0.0580 C   0  0  0  0  0  0  0  0  0  0  0  0
    3.7410    5.2920    0.0050 N   0  0  0  0  0  0  0  0  0  0  0  0
   -1.4870   11.4090    0.0430 O   0  0  0  0  0  0  0  0  0  0  0  0
    0.6820   10.9300   -0.0140 O   0  0  0  0  0  0  0  0  0  0  0  0
   -1.0220   12.2640   -0.0430 H   0  0  0  0  0  0  0  0  0  0  0  0
  1  5  1  0  0  0  0
  2  1  1  0  0  0  0
  3  2  2  0  0  0  0
  4  2  1  1  0  0  0
  4 10  5  0  0  0  0
  6  4  5  0  0  0  0
  6  7  5  0  0  0  0
  6 13  1  0  0  0  0
  7 12  1  6  0  0  0
  8  7  5  0  0  0  0
  8 11  1  6  0  0  0
  9  8  5  0  0  0  0
  9 15  1  6  0  0  0
 10  9  5  0  0  0  0
 10 14  1  0  0  0  0
 15 20  3  0  0  0  0
 16 11  2  0  0  0  0
 17 16  1  0  0  0  0
 18 17  2  0  0  0  0
 19 18  1  0  0  0  0
 19 22  2  0  0  0  0
 21 19  1  0  0  0  0
 23 21  1  0  0  0  0
M  END
