
 OpenBabel11042013053D

 37 38  0  0  1  0  0  0  0  0999 V2000
    0.9570    0.7630   -1.3270 O   0  0  0  0  0  0  0  0  0  0  0  0
    0.4950    1.3950   -0.2390 C   0  0  0  0  0  0  0  0  0  0  0  0
   -0.0210    0.7860    0.6800 O   0  0  0  0  0  0  0  0  0  0  0  0
    0.7690    2.8520   -0.2520 C   0  0  1  0  0  0  0  0  0  0  0  0
    0.7430   -0.1750   -1.1350 H   0  0  0  0  0  0  0  0  0  0  0  0
   -0.1890    3.8030   -0.2880 C   0  0  1  0  0  0  0  0  0  0  0  0
    0.1470    5.1250   -0.0800 C   0  0  2  0  0  0  0  0  0  0  0  0
    1.4950    5.4660    0.0320 C   0  0  2  0  0  0  0  0  0  0  0  0
    2.4020    4.4510   -0.0020 C   0  0  0  0  0  0  0  0  0  0  0  0
    2.0600    3.1700   -0.1210 C   0  0  0  0  0  0  0  0  0  0  0  0
    2.0830    6.9050    0.2650 C   0  0  1  0  0  0  0  0  0  0  0  0
   -0.9190    6.2260    0.1270 C   0  0  0  0  0  0  0  0  0  0  0  0
   -1.9470    3.1870   -0.7120 Br  0  0  0  0  0  0  0  0  0  0  0  0
    2.8330    2.4060   -0.0950 H   0  0  0  0  0  0  0  0  0  0  0  0
    3.4610    4.6110    0.1130 H   0  0  0  0  0  0  0  0  0  0  0  0
   -2.2890    5.8870    0.7420 C   0  0  0  0  0  0  0  0  0  0  0  0
   -3.0170    5.6160   -0.0320 H   0  0  0  0  0  0  0  0  0  0  0  0
   -2.7180    6.7610    1.2440 H   0  0  0  0  0  0  0  0  0  0  0  0
   -2.2290    5.0870    1.4870 H   0  0  0  0  0  0  0  0  0  0  0  0
   -0.5090    6.9550    0.8360 H   0  0  0  0  0  0  0  0  0  0  0  0
   -1.0840    6.7580   -0.8180 H   0  0  0  0  0  0  0  0  0  0  0  0
    3.6340    7.0420    0.2760 C   0  0  0  0  0  0  0  0  0  0  0  0
    3.9700    8.3840   -0.3550 C   0  0  1  0  0  0  0  0  0  0  0  0
    2.6740    9.0570   -0.3800 N   0  0  0  0  0  0  0  0  0  0  0  0
    1.7200    7.9740   -0.6900 N   0  0  0  0  0  0  0  0  0  0  0  0
    5.0480    9.0370    0.4030 N   0  0  0  0  0  0  0  0  0  0  0  0
    0.7670    8.2910   -0.5000 H   0  0  0  0  0  0  0  0  0  0  0  0
    2.7060    9.7790   -1.1040 H   0  0  0  0  0  0  0  0  0  0  0  0
    4.1540    6.3080   -0.3470 H   0  0  0  0  0  0  0  0  0  0  0  0
    4.3030    8.2080   -1.3910 H   0  0  0  0  0  0  0  0  0  0  0  0
    4.0060    6.9470    1.3030 H   0  0  0  0  0  0  0  0  0  0  0  0
    1.7330    7.2170    1.2610 H   0  0  0  0  0  0  0  0  0  0  0  0
    5.7460    9.7920   -0.3170 N   0  0  0  0  0  0  0  0  0  0  0  0
    6.8700   10.2370    0.3320 C   0  0  0  0  0  0  0  0  0  0  0  0
    7.0940   11.5470    0.0800 O   0  0  0  0  0  0  0  0  0  0  0  0
    7.6660    9.6060    1.0140 O   0  0  0  0  0  0  0  0  0  0  0  0
    7.9250   11.7210    0.5650 H   0  0  0  0  0  0  0  0  0  0  0  0
  1  5  1  0  0  0  0
  2  1  1  0  0  0  0
  3  2  2  0  0  0  0
  4  2  1  1  0  0  0
  4 10  5  0  0  0  0
  6  4  5  0  0  0  0
  6  7  5  0  0  0  0
  6 13  1  6  0  0  0
  7 12  1  1  0  0  0
  8  7  5  0  0  0  0
  8  9  5  1  0  0  0
  8 11  1  0  0  0  0
  9 15  1  0  0  0  0
 10  9  5  0  0  0  0
 10 14  1  0  0  0  0
 11 25  1  0  0  0  0
 11 32  1  1  0  0  0
 12 20  1  0  0  0  0
 12 21  1  0  0  0  0
 16 17  1  0  0  0  0
 16 18  1  0  0  0  0
 16 19  1  0  0  0  0
 16 12  1  0  0  0  0
 22 11  1  0  0  0  0
 22 29  1  0  0  0  0
 22 31  1  0  0  0  0
 23 22  1  0  0  0  0
 23 30  1  6  0  0  0
 24 23  1  0  0  0  0
 25 24  1  0  0  0  0
 26 23  1  0  0  0  0
 27 25  1  0  0  0  0
 28 24  1  0  0  0  0
 33 26  2  0  0  0  0
 34 33  1  0  0  0  0
 34 36  2  0  0  0  0
 35 34  1  0  0  0  0
 37 35  1  0  0  0  0
M  END
