27

O          0.71500        0.23200        0.27000
C         -0.11800        1.06100       -0.39900
O         -0.96800        0.59200       -1.14900
C          0.01500        2.53700       -0.10400
H          1.16700        0.64100        1.02600
C         -1.13800        3.26900       -0.08500
C         -1.12800        4.63500        0.03500
C          0.07400        5.26600        0.22700
C          1.22000        4.50800        0.26200
C          1.21000        3.17400        0.04800
C          0.34600        6.75700        0.33300
C         -2.48100        5.33200       -0.09700
N         -2.41500        2.60200       -0.20300
C          2.57200        2.49600       -0.10500
O          2.48700        5.06400        0.47100
H          2.48600        6.03700        0.59100
H          2.63600        1.46100        0.21600
H          3.35100        2.98700        0.48800
H          2.87800        2.53600       -1.15700
H         -3.23600        4.86600        0.54800
H         -2.54700        6.37700        0.16600
H         -2.81800        5.27200       -1.14000
H         -2.37100        1.65300       -0.59300
H         -3.17700        3.10000       -0.64000
O         -0.69700        7.59400        0.25500
O          1.47100        7.23900        0.44400
H         -1.35800        7.41500        0.94400
