32

O          1.04700        1.35900        0.31900
C          0.55200        2.36500        1.06100
O          0.18200        2.19200        2.21500
C          0.38900        3.67800        0.39300
H          1.27300        1.59000       -0.59600
C         -0.91300        3.83400        0.05400
C         -1.37900        5.03100       -0.32400
C         -0.55800        6.09600       -0.22700
C          0.76700        5.98200        0.09400
C          1.28000        4.71200        0.28900
C         -1.21100        7.41100       -0.43200
N         -2.74900        5.13000       -0.74200
F         -1.75200        2.78400        0.07700
C          2.79600        4.50700        0.36500
C          1.52300        7.32300        0.32500
C          3.38300        3.12400        0.07900
H          2.95900        2.69100       -0.83300
H          4.46400        3.18900       -0.09100
H          3.23600        2.44600        0.92200
H          3.21900        5.10800       -0.45300
H          3.20000        4.88800        1.30600
H         -2.92500        5.79900       -1.48800
H         -3.19800        4.23600       -0.92600
C          2.97800        7.62400       -0.00800
H          3.17400        8.67700        0.24500
H          3.68800        7.04100        0.58100
H          3.18200        7.51000       -1.07500
H          0.99700        8.12600       -0.20300
H          1.39200        7.54900        1.39500
O         -1.52000        7.99900        0.73800
O         -1.47400        7.91700       -1.50800
H         -2.00800        8.80700        0.48200
