
 OpenBabel11042013053D

 32 32  0  0  1  0  0  0  0  0999 V2000
    1.0470    1.3590    0.3190 O   0  0  0  0  0  0  0  0  0  0  0  0
    0.5520    2.3650    1.0610 C   0  0  0  0  0  0  0  0  0  0  0  0
    0.1820    2.1920    2.2150 O   0  0  0  0  0  0  0  0  0  0  0  0
    0.3890    3.6780    0.3930 C   0  0  1  0  0  0  0  0  0  0  0  0
    1.2730    1.5900   -0.5960 H   0  0  0  0  0  0  0  0  0  0  0  0
   -0.9130    3.8340    0.0540 C   0  0  1  0  0  0  0  0  0  0  0  0
   -1.3790    5.0310   -0.3240 C   0  0  2  0  0  0  0  0  0  0  0  0
   -0.5580    6.0960   -0.2270 C   0  0  2  0  0  0  0  0  0  0  0  0
    0.7670    5.9820    0.0940 C   0  0  2  0  0  0  0  0  0  0  0  0
    1.2800    4.7120    0.2890 C   0  0  2  0  0  0  0  0  0  0  0  0
   -1.2110    7.4110   -0.4320 C   0  0  0  0  0  0  0  0  0  0  0  0
   -2.7490    5.1300   -0.7420 N   0  0  0  0  0  0  0  0  0  0  0  0
   -1.7520    2.7840    0.0770 F   0  0  0  0  0  0  0  0  0  0  0  0
    2.7960    4.5070    0.3650 C   0  0  0  0  0  0  0  0  0  0  0  0
    1.5230    7.3230    0.3250 C   0  0  0  0  0  0  0  0  0  0  0  0
    3.3830    3.1240    0.0790 C   0  0  0  0  0  0  0  0  0  0  0  0
    2.9590    2.6910   -0.8330 H   0  0  0  0  0  0  0  0  0  0  0  0
    4.4640    3.1890   -0.0910 H   0  0  0  0  0  0  0  0  0  0  0  0
    3.2360    2.4460    0.9220 H   0  0  0  0  0  0  0  0  0  0  0  0
    3.2190    5.1080   -0.4530 H   0  0  0  0  0  0  0  0  0  0  0  0
    3.2000    4.8880    1.3060 H   0  0  0  0  0  0  0  0  0  0  0  0
   -2.9250    5.7990   -1.4880 H   0  0  0  0  0  0  0  0  0  0  0  0
   -3.1980    4.2360   -0.9260 H   0  0  0  0  0  0  0  0  0  0  0  0
    2.9780    7.6240   -0.0080 C   0  0  0  0  0  0  0  0  0  0  0  0
    3.1740    8.6770    0.2450 H   0  0  0  0  0  0  0  0  0  0  0  0
    3.6880    7.0410    0.5810 H   0  0  0  0  0  0  0  0  0  0  0  0
    3.1820    7.5100   -1.0750 H   0  0  0  0  0  0  0  0  0  0  0  0
    0.9970    8.1260   -0.2030 H   0  0  0  0  0  0  0  0  0  0  0  0
    1.3920    7.5490    1.3950 H   0  0  0  0  0  0  0  0  0  0  0  0
   -1.5200    7.9990    0.7380 O   0  0  0  0  0  0  0  0  0  0  0  0
   -1.4740    7.9170   -1.5080 O   0  0  0  0  0  0  0  0  0  0  0  0
   -2.0080    8.8070    0.4820 H   0  0  0  0  0  0  0  0  0  0  0  0
  1  5  1  0  0  0  0
  2  1  1  0  0  0  0
  3  2  2  0  0  0  0
  4  2  1  1  0  0  0
  4 10  5  0  0  0  0
  6  4  5  0  0  0  0
  6  7  5  0  0  0  0
  6 13  1  6  0  0  0
  7 12  1  1  0  0  0
  8  7  5  0  0  0  0
  8 11  1  1  0  0  0
  9  8  5  0  0  0  0
  9 15  1  1  0  0  0
 10  9  5  0  0  0  0
 10 14  1  6  0  0  0
 11 31  2  0  0  0  0
 12 22  1  0  0  0  0
 12 23  1  0  0  0  0
 14 20  1  0  0  0  0
 14 21  1  0  0  0  0
 15 28  1  0  0  0  0
 15 29  1  0  0  0  0
 16 17  1  0  0  0  0
 16 18  1  0  0  0  0
 16 19  1  0  0  0  0
 16 14  1  0  0  0  0
 24 25  1  0  0  0  0
 24 26  1  0  0  0  0
 24 27  1  0  0  0  0
 24 15  1  0  0  0  0
 30 11  1  0  0  0  0
 32 30  1  0  0  0  0
M  END
