40

O          1.26100        0.67600        0.14400
C          0.16300        1.43000        0.33100
O         -0.91500        0.88200        0.53600
C          0.28500        2.92800        0.22100
H          2.13800        1.05700       -0.03200
C         -0.90600        3.52900        0.01200
C         -1.02700        4.86300       -0.14400
C          0.07100        5.67800       -0.06200
C          1.26600        5.06800        0.16400
C          1.38300        3.72100        0.29600
C         -0.02600        7.19400       -0.29800
Br        -2.79300        5.44800       -0.54500
H         -1.80700        2.92100       -0.05600
C          2.68000        3.16400        0.47100
H          2.16600        5.67900        0.21100
C          1.05200        8.26600        0.03100
C          0.26300        9.53800       -0.37000
N         -1.09600        9.22400        0.14500
N         -1.13900        7.81700        0.43200
C          0.62800       11.01000       -0.12200
H         -2.02300        7.41700        0.10100
H         -1.24200        9.74600        1.01500
H          1.96400        8.13800       -0.56100
H          0.20000        9.49000       -1.47000
H          1.32000        8.26900        1.09700
H         -0.21300        7.27300       -1.38400
N          3.68000        2.58000        0.52600
C         -0.38600       11.92000       -0.13400
C         -0.18100       13.23800       -0.00300
C          1.07000       13.70700        0.13000
C          2.10000       12.83000        0.16700
C          1.88000       11.49800        0.05100
C          1.32400       15.17500        0.20700
H         -1.03800       13.90500       -0.03200
H         -1.41700       11.60400       -0.28700
H          2.73600       10.82700        0.05900
H          3.12000       13.20100        0.27200
O          0.19700       15.91500        0.13600
O          2.41400       15.71600        0.28900
H          0.51100       16.84300        0.15400
