
 OpenBabel11042013053D

 40 42  0  0  1  0  0  0  0  0999 V2000
    1.2610    0.6760    0.1440 O   0  0  0  0  0  0  0  0  0  0  0  0
    0.1630    1.4300    0.3310 C   0  0  0  0  0  0  0  0  0  0  0  0
   -0.9150    0.8820    0.5360 O   0  0  0  0  0  0  0  0  0  0  0  0
    0.2850    2.9280    0.2210 C   0  0  2  0  0  0  0  0  0  0  0  0
    2.1380    1.0570   -0.0320 H   0  0  0  0  0  0  0  0  0  0  0  0
   -0.9060    3.5290    0.0120 C   0  0  0  0  0  0  0  0  0  0  0  0
   -1.0270    4.8630   -0.1440 C   0  0  1  0  0  0  0  0  0  0  0  0
    0.0710    5.6780   -0.0620 C   0  0  1  0  0  0  0  0  0  0  0  0
    1.2660    5.0680    0.1640 C   0  0  0  0  0  0  0  0  0  0  0  0
    1.3830    3.7210    0.2960 C   0  0  2  0  0  0  0  0  0  0  0  0
   -0.0260    7.1940   -0.2980 C   0  0  2  0  0  0  0  0  0  0  0  0
   -2.7930    5.4480   -0.5450 Br  0  0  0  0  0  0  0  0  0  0  0  0
   -1.8070    2.9210   -0.0560 H   0  0  0  0  0  0  0  0  0  0  0  0
    2.6800    3.1640    0.4710 C   0  0  0  0  0  0  0  0  0  0  0  0
    2.1660    5.6790    0.2110 H   0  0  0  0  0  0  0  0  0  0  0  0
    1.0520    8.2660    0.0310 C   0  0  0  0  0  0  0  0  0  0  0  0
    0.2630    9.5380   -0.3700 C   0  0  1  0  0  0  0  0  0  0  0  0
   -1.0960    9.2240    0.1450 N   0  0  0  0  0  0  0  0  0  0  0  0
   -1.1390    7.8170    0.4320 N   0  0  0  0  0  0  0  0  0  0  0  0
    0.6280   11.0100   -0.1220 C   0  0  2  0  0  0  0  0  0  0  0  0
   -2.0230    7.4170    0.1010 H   0  0  0  0  0  0  0  0  0  0  0  0
   -1.2420    9.7460    1.0150 H   0  0  0  0  0  0  0  0  0  0  0  0
    1.9640    8.1380   -0.5610 H   0  0  0  0  0  0  0  0  0  0  0  0
    0.2000    9.4900   -1.4700 H   0  0  0  0  0  0  0  0  0  0  0  0
    1.3200    8.2690    1.0970 H   0  0  0  0  0  0  0  0  0  0  0  0
   -0.2130    7.2730   -1.3840 H   0  0  0  0  0  0  0  0  0  0  0  0
    3.6800    2.5800    0.5260 N   0  0  0  0  0  0  0  0  0  0  0  0
   -0.3860   11.9200   -0.1340 C   0  0  0  0  0  0  0  0  0  0  0  0
   -0.1810   13.2380   -0.0030 C   0  0  0  0  0  0  0  0  0  0  0  0
    1.0700   13.7070    0.1300 C   0  0  1  0  0  0  0  0  0  0  0  0
    2.1000   12.8300    0.1670 C   0  0  0  0  0  0  0  0  0  0  0  0
    1.8800   11.4980    0.0510 C   0  0  0  0  0  0  0  0  0  0  0  0
    1.3240   15.1750    0.2070 C   0  0  0  0  0  0  0  0  0  0  0  0
   -1.0380   13.9050   -0.0320 H   0  0  0  0  0  0  0  0  0  0  0  0
   -1.4170   11.6040   -0.2870 H   0  0  0  0  0  0  0  0  0  0  0  0
    2.7360   10.8270    0.0590 H   0  0  0  0  0  0  0  0  0  0  0  0
    3.1200   13.2010    0.2720 H   0  0  0  0  0  0  0  0  0  0  0  0
    0.1970   15.9150    0.1360 O   0  0  0  0  0  0  0  0  0  0  0  0
    2.4140   15.7160    0.2890 O   0  0  0  0  0  0  0  0  0  0  0  0
    0.5110   16.8430    0.1540 H   0  0  0  0  0  0  0  0  0  0  0  0
  1  5  1  0  0  0  0
  2  1  1  0  0  0  0
  3  2  2  0  0  0  0
  4  2  1  6  0  0  0
  4 10  5  0  0  0  0
  6  4  5  0  0  0  0
  6  7  5  0  0  0  0
  6 13  1  0  0  0  0
  7 12  1  6  0  0  0
  8  7  5  0  0  0  0
  8  9  5  6  0  0  0
  8 11  1  0  0  0  0
  9 15  1  0  0  0  0
 10  9  5  0  0  0  0
 10 14  1  6  0  0  0
 11 19  1  0  0  0  0
 11 26  1  6  0  0  0
 14 27  3  0  0  0  0
 16 11  1  0  0  0  0
 16 23  1  0  0  0  0
 16 25  1  0  0  0  0
 17 16  1  0  0  0  0
 17 24  1  6  0  0  0
 18 17  1  0  0  0  0
 19 18  1  0  0  0  0
 20 17  1  0  0  0  0
 20 28  5  6  0  0  0
 20 32  5  0  0  0  0
 21 19  1  0  0  0  0
 22 18  1  0  0  0  0
 28 29  5  0  0  0  0
 28 35  1  0  0  0  0
 29 34  1  0  0  0  0
 30 29  5  0  0  0  0
 30 33  1  6  0  0  0
 31 30  5  0  0  0  0
 31 37  1  0  0  0  0
 32 31  5  0  0  0  0
 32 36  1  0  0  0  0
 33 39  2  0  0  0  0
 38 33  1  0  0  0  0
 40 38  1  0  0  0  0
M  END
