
 OpenBabel11042013053D

 34 35  0  0  1  0  0  0  0  0999 V2000
    1.6660   -0.2820   -0.1330 O   0  0  0  0  0  0  0  0  0  0  0  0
    0.4370    0.2690   -0.2350 C   0  0  0  0  0  0  0  0  0  0  0  0
   -0.5600   -0.4330   -0.3240 O   0  0  0  0  0  0  0  0  0  0  0  0
    0.3960    1.7700   -0.1910 C   0  0  1  0  0  0  0  0  0  0  0  0
    2.3980    0.3270    0.0460 H   0  0  0  0  0  0  0  0  0  0  0  0
   -0.8340    2.3130   -0.0460 C   0  0  0  0  0  0  0  0  0  0  0  0
   -1.0140    3.6410    0.0540 C   0  0  2  0  0  0  0  0  0  0  0  0
    0.0540    4.4890    0.0310 C   0  0  2  0  0  0  0  0  0  0  0  0
    1.2780    3.9360   -0.1630 C   0  0  0  0  0  0  0  0  0  0  0  0
    1.4530    2.6030   -0.2750 C   0  0  0  0  0  0  0  0  0  0  0  0
   -0.0330    5.9820    0.3440 C   0  0  1  0  0  0  0  0  0  0  0  0
   -2.3130    4.0680    0.2370 O   0  0  0  0  0  0  0  0  0  0  0  0
   -1.7110    1.6690    0.0150 H   0  0  0  0  0  0  0  0  0  0  0  0
    2.4670    2.2450   -0.4120 H   0  0  0  0  0  0  0  0  0  0  0  0
    2.1570    4.5790   -0.1900 H   0  0  0  0  0  0  0  0  0  0  0  0
   -2.5810    4.7020   -0.4480 H   0  0  0  0  0  0  0  0  0  0  0  0
    0.9150    6.8410   -0.3570 O   0  0  0  0  0  0  0  0  0  0  0  0
   -0.9160    8.1900    0.2750 C   0  0  0  0  0  0  0  0  0  0  0  0
   -1.3380    6.7410    0.1620 C   0  0  0  0  0  0  0  0  0  0  0  0
    1.0990    9.3210   -0.5280 C   0  0  0  0  0  0  0  0  0  0  0  0
   -2.0930    6.4900    0.9120 H   0  0  0  0  0  0  0  0  0  0  0  0
   -1.2340    8.6480    1.2170 H   0  0  0  0  0  0  0  0  0  0  0  0
   -1.3750    8.7710   -0.5350 H   0  0  0  0  0  0  0  0  0  0  0  0
   -1.7530    6.5750   -0.8390 H   0  0  0  0  0  0  0  0  0  0  0  0
    1.0380    8.1670    1.1980 H   0  0  0  0  0  0  0  0  0  0  0  0
    0.6070    8.1450    0.1870 C   0  0  2  0  0  0  0  0  0  0  0  0
    0.2420    6.0400    1.4100 H   0  0  0  0  0  0  0  0  0  0  0  0
    1.2480   10.4840   -0.7910 C   0  0  0  0  0  0  0  0  0  0  0  0
    1.1630   12.0170   -0.7900 C   0  0  0  0  0  0  0  0  0  0  0  0
    0.9450   13.1850   -0.5980 C   0  0  0  0  0  0  0  0  0  0  0  0
    0.6020   14.5350   -0.2560 C   0  0  0  0  0  0  0  0  0  0  0  0
   -0.7250   14.7600   -0.1870 O   0  0  0  0  0  0  0  0  0  0  0  0
    1.4220   15.4000   -0.0060 O   0  0  0  0  0  0  0  0  0  0  0  0
   -0.7910   15.6990    0.0840 H   0  0  0  0  0  0  0  0  0  0  0  0
  1  5  1  0  0  0  0
  2  1  1  0  0  0  0
  3  2  2  0  0  0  0
  4  2  1  1  0  0  0
  4 10  5  0  0  0  0
  6  4  5  0  0  0  0
  6  7  5  0  0  0  0
  6 13  1  0  0  0  0
  7 12  1  1  0  0  0
  8  7  5  0  0  0  0
  8  9  5  1  0  0  0
  8 11  1  0  0  0  0
  9 15  1  0  0  0  0
 10  9  5  0  0  0  0
 10 14  1  0  0  0  0
 11 19  1  0  0  0  0
 11 27  1  1  0  0  0
 12 16  1  0  0  0  0
 17 11  1  0  0  0  0
 18 26  1  0  0  0  0
 18 23  1  0  0  0  0
 19 18  1  0  0  0  0
 19 24  1  0  0  0  0
 20 26  1  0  0  0  0
 21 19  1  0  0  0  0
 22 18  1  0  0  0  0
 26 17  1  0  0  0  0
 26 25  1  1  0  0  0
 28 20  3  0  0  0  0
 29 28  1  0  0  0  0
 30 29  3  0  0  0  0
 31 30  1  0  0  0  0
 31 33  2  0  0  0  0
 32 31  1  0  0  0  0
 34 32  1  0  0  0  0
M  END
