39

O          0.76700        0.38700       -0.11200
C         -0.28700        1.22400       -0.11100
O         -1.42400        0.76700       -0.08100
C          0.01200        2.70500       -0.11900
H          1.63800        0.82200       -0.11800
C         -1.11200        3.46000       -0.15400
C         -1.05900        4.80100       -0.09500
C          0.11700        5.46800        0.00500
C          1.23800        4.70700       -0.01500
C          1.20700        3.34800       -0.07500
C          0.14900        6.98700        0.24600
H         -2.00800        5.33200       -0.08200
H         -2.10000        2.99600       -0.19400
Br         2.88500        2.48200       -0.01700
H          2.20000        5.20900        0.06000
C          1.29800        7.93000       -0.18900
C          0.72300        9.27400        0.27600
N         -0.74000        9.12800        0.13700
N         -0.98400        7.75900       -0.29400
C          1.13100       10.59800       -0.24500
H         -1.86400        7.42300        0.10000
H         -1.08900        9.79800       -0.55500
H          2.23000        7.69100        0.33800
H          0.93200        9.33100        1.35400
H          1.48700        7.88600       -1.26800
H          0.09000        7.05000        1.34600
C          1.15800       11.80300       -0.27100
C          0.90900       13.19100        0.15700
C          1.97600       14.22400       -0.03300
N          1.12900       15.39000       -0.13500
N         -0.13100       15.05800       -0.55000
N         -0.23900       13.79400       -0.55900
C          1.54900       16.68100        0.04300
H          2.53300       14.13800       -0.97200
H          2.67100       14.30400        0.80700
H          0.62600       13.15400        1.21700
O          0.57900       17.60900       -0.09100
O          2.68500       17.03500        0.32400
H          1.04200       18.45600        0.07400
