40

O          1.51100       -0.27300        0.26800
C          0.27700        0.23100        0.50200
O         -0.67000       -0.47700        0.79600
C          0.17700        1.69700        0.27900
H          2.13100        0.34900       -0.15100
C         -0.99300        2.17000       -0.18500
C         -1.14500        3.47600       -0.48400
C         -0.12200        4.37100       -0.33100
C          1.03100        3.87700        0.21200
C          1.18000        2.57000        0.50300
C         -0.30700        5.83900       -0.84600
O         -2.37100        3.86600       -0.99500
H         -1.81700        1.47800       -0.35300
H          2.11200        2.21600        0.94000
N          2.14700        4.70800        0.47500
O          0.71900        6.78900       -0.41300
C         -1.31200        7.30100        0.73600
C         -1.61000        6.57700       -0.54600
C          0.30900        9.16600        0.32700
H         -2.52400        5.99500       -0.46200
H         -1.97100        8.16300        0.88400
H         -1.45200        6.63400        1.59300
H         -1.78300        7.30700       -1.34800
H          0.68500        7.44200        1.52400
C          0.15900        7.66400        0.58700
H         -0.19000        5.76600       -1.93500
C          1.64800        9.76600        0.00600
N          1.15300       11.00100       -0.58100
N         -0.06600       10.78600       -1.18000
N         -0.49300        9.65100       -0.82900
C          1.42900       12.24000       -0.04700
H          2.28400        9.93700        0.87800
H          2.19500        9.22300       -0.77200
H         -0.08900        9.67900        1.21700
H          3.07300        4.32000        0.58300
H          2.12200        5.64300        0.06600
H         -3.09500        3.28000       -0.70900
O          0.55500       13.20700       -0.40500
O          2.32100       12.50600        0.74600
H          0.82900       13.98300        0.12400
