
 OpenBabel11042013053D

 40 42  0  0  1  0  0  0  0  0999 V2000
    1.5110   -0.2730    0.2680 O   0  0  0  0  0  0  0  0  0  0  0  0
    0.2770    0.2310    0.5020 C   0  0  0  0  0  0  0  0  0  0  0  0
   -0.6700   -0.4770    0.7960 O   0  0  0  0  0  0  0  0  0  0  0  0
    0.1770    1.6970    0.2790 C   0  0  2  0  0  0  0  0  0  0  0  0
    2.1310    0.3490   -0.1510 H   0  0  0  0  0  0  0  0  0  0  0  0
   -0.9930    2.1700   -0.1850 C   0  0  0  0  0  0  0  0  0  0  0  0
   -1.1450    3.4760   -0.4840 C   0  0  1  0  0  0  0  0  0  0  0  0
   -0.1220    4.3710   -0.3310 C   0  0  1  0  0  0  0  0  0  0  0  0
    1.0310    3.8770    0.2120 C   0  0  1  0  0  0  0  0  0  0  0  0
    1.1800    2.5700    0.5030 C   0  0  0  0  0  0  0  0  0  0  0  0
   -0.3070    5.8390   -0.8460 C   0  0  2  0  0  0  0  0  0  0  0  0
   -2.3710    3.8660   -0.9950 O   0  0  0  0  0  0  0  0  0  0  0  0
   -1.8170    1.4780   -0.3530 H   0  0  0  0  0  0  0  0  0  0  0  0
    2.1120    2.2160    0.9400 H   0  0  0  0  0  0  0  0  0  0  0  0
    2.1470    4.7080    0.4750 N   0  0  0  0  0  0  0  0  0  0  0  0
    0.7190    6.7890   -0.4130 O   0  0  0  0  0  0  0  0  0  0  0  0
   -1.3120    7.3010    0.7360 C   0  0  0  0  0  0  0  0  0  0  0  0
   -1.6100    6.5770   -0.5460 C   0  0  0  0  0  0  0  0  0  0  0  0
    0.3090    9.1660    0.3270 C   0  0  1  0  0  0  0  0  0  0  0  0
   -2.5240    5.9950   -0.4620 H   0  0  0  0  0  0  0  0  0  0  0  0
   -1.9710    8.1630    0.8840 H   0  0  0  0  0  0  0  0  0  0  0  0
   -1.4520    6.6340    1.5930 H   0  0  0  0  0  0  0  0  0  0  0  0
   -1.7830    7.3070   -1.3480 H   0  0  0  0  0  0  0  0  0  0  0  0
    0.6850    7.4420    1.5240 H   0  0  0  0  0  0  0  0  0  0  0  0
    0.1590    7.6640    0.5870 C   0  0  2  0  0  0  0  0  0  0  0  0
   -0.1900    5.7660   -1.9350 H   0  0  0  0  0  0  0  0  0  0  0  0
    1.6480    9.7660    0.0060 C   0  0  0  0  0  0  0  0  0  0  0  0
    1.1530   11.0010   -0.5810 N   0  0  0  0  0  0  0  0  0  0  0  0
   -0.0660   10.7860   -1.1800 N   0  0  0  0  0  0  0  0  0  0  0  0
   -0.4930    9.6510   -0.8290 N   0  0  0  0  0  0  0  0  0  0  0  0
    1.4290   12.2400   -0.0470 C   0  0  0  0  0  0  0  0  0  0  0  0
    2.2840    9.9370    0.8780 H   0  0  0  0  0  0  0  0  0  0  0  0
    2.1950    9.2230   -0.7720 H   0  0  0  0  0  0  0  0  0  0  0  0
   -0.0890    9.6790    1.2170 H   0  0  0  0  0  0  0  0  0  0  0  0
    3.0730    4.3200    0.5830 H   0  0  0  0  0  0  0  0  0  0  0  0
    2.1220    5.6430    0.0660 H   0  0  0  0  0  0  0  0  0  0  0  0
   -3.0950    3.2800   -0.7090 H   0  0  0  0  0  0  0  0  0  0  0  0
    0.5550   13.2070   -0.4050 O   0  0  0  0  0  0  0  0  0  0  0  0
    2.3210   12.5060    0.7460 O   0  0  0  0  0  0  0  0  0  0  0  0
    0.8290   13.9830    0.1240 H   0  0  0  0  0  0  0  0  0  0  0  0
  1  5  1  0  0  0  0
  2  1  1  0  0  0  0
  3  2  2  0  0  0  0
  4  2  1  6  0  0  0
  4 10  5  0  0  0  0
  6  4  5  0  0  0  0
  6  7  5  0  0  0  0
  6 13  1  0  0  0  0
  7 12  1  6  0  0  0
  8  7  5  0  0  0  0
  8 11  1  6  0  0  0
  9  8  5  0  0  0  0
  9 15  1  6  0  0  0
 10  9  5  0  0  0  0
 10 14  1  0  0  0  0
 11 18  1  0  0  0  0
 11 26  1  6  0  0  0
 12 37  1  0  0  0  0
 15 35  1  0  0  0  0
 15 36  1  0  0  0  0
 16 11  1  0  0  0  0
 17 25  1  0  0  0  0
 17 22  1  0  0  0  0
 18 17  1  0  0  0  0
 18 23  1  0  0  0  0
 19 25  1  0  0  0  0
 19 30  1  0  0  0  0
 19 34  1  1  0  0  0
 20 18  1  0  0  0  0
 21 17  1  0  0  0  0
 25 16  1  0  0  0  0
 25 24  1  1  0  0  0
 27 19  1  0  0  0  0
 27 32  1  0  0  0  0
 27 33  1  0  0  0  0
 28 27  1  0  0  0  0
 29 28  1  0  0  0  0
 30 29  2  0  0  0  0
 31 28  1  0  0  0  0
 31 39  2  0  0  0  0
 38 31  1  0  0  0  0
 40 38  1  0  0  0  0
M  END
