49

O          1.48000       -0.45700        0.17400
C          0.28700        0.16200        0.30400
O         -0.72800       -0.47100        0.55800
C          0.30700        1.64700        0.08500
H          2.20200        0.08800       -0.17700
C         -0.90000        2.22000       -0.10100
C         -1.00000        3.54100       -0.32700
C          0.09200        4.34600       -0.38100
C          1.29600        3.76500       -0.16300
C          1.40400        2.43700        0.06800
C         -0.08400        5.83100       -0.70800
H         -1.99900        3.94700       -0.48400
H         -1.81300        1.62500       -0.07800
H          2.39700        2.03700        0.23900
H          2.20300        4.36300       -0.18800
C          0.84500        6.92400       -0.17300
N         -0.09500        8.04400       -0.16000
N         -1.36700        7.53400        0.03500
N         -1.39400        6.31100       -0.21100
C          0.15100        9.33600        0.47200
H          1.68900        7.13800       -0.83300
H          1.18400        6.72900        0.85000
H         -0.11700        5.90900       -1.80400
C          1.15200       10.34800       -0.11100
C          0.62600       11.65000        0.53700
N         -0.84400       11.47500        0.43300
N         -1.09900       10.08100        0.32500
C          1.06300       13.08200        0.16300
H         -1.80100        9.71200        0.96500
H         -1.14000       11.90000       -0.45300
H          2.18000       10.12000        0.19300
H          0.86300       11.57600        1.61000
H          1.11200       10.38900       -1.20700
H          0.36200        9.15800        1.53500
C          0.12800       14.06600        0.06900
C          0.45500       15.35100       -0.12800
C          1.74300       15.71800       -0.23000
C          2.69300       14.76400       -0.17400
C          2.35700       13.46100        0.01300
C          2.01400       17.11700       -0.32600
H         -0.34000       16.09400       -0.16400
H         -0.93100       13.86500        0.20300
H          3.15500       12.72600        0.09000
H          3.74400       15.04100       -0.24600
C          1.98400       18.32100       -0.30300
C          1.75400       19.73400       -0.19300
O          0.44800       20.06600       -0.15400
O          2.64200       20.56500       -0.11400
H          0.45000       21.03900       -0.05100
