
 OpenBabel11042013033D

 35 36  0  0  1  0  0  0  0  0999 V2000
    1.5100    0.6180   -0.6300 O   0  0  0  0  0  0  0  0  0  0  0  0
    0.3430    1.1480   -0.1900 C   0  0  0  0  0  0  0  0  0  0  0  0
   -0.6160    0.4340    0.0550 O   0  0  0  0  0  0  0  0  0  0  0  0
    0.3730    2.6380   -0.0020 C   0  0  1  0  0  0  0  0  0  0  0  0
    2.1750    1.2570   -0.9380 H   0  0  0  0  0  0  0  0  0  0  0  0
   -0.7620    3.3660   -0.2060 C   0  0  1  0  0  0  0  0  0  0  0  0
   -0.7250    4.7090   -0.0280 C   0  0  1  0  0  0  0  0  0  0  0  0
    0.4080    5.3450    0.3760 C   0  0  1  0  0  0  0  0  0  0  0  0
    1.5080    4.5910    0.6010 C   0  0  0  0  0  0  0  0  0  0  0  0
    1.4980    3.2570    0.4180 C   0  0  0  0  0  0  0  0  0  0  0  0
    0.4290    6.7190    0.5420 N   0  0  0  0  0  0  0  0  0  0  0  0
   -2.1660    5.6590   -0.3450 Cl  0  0  0  0  0  0  0  0  0  0  0  0
   -2.8130    2.4390    0.4230 C   0  0  0  0  0  0  0  0  0  0  0  0
    2.4070    2.6990    0.6310 H   0  0  0  0  0  0  0  0  0  0  0  0
    2.4290    5.0790    0.9290 H   0  0  0  0  0  0  0  0  0  0  0  0
   -3.5020    3.2720    0.5870 H   0  0  0  0  0  0  0  0  0  0  0  0
   -2.2840    2.2110    1.3560 H   0  0  0  0  0  0  0  0  0  0  0  0
   -3.4010    1.5630    0.1370 H   0  0  0  0  0  0  0  0  0  0  0  0
   -1.9240    2.7420   -0.6570 O   0  0  0  0  0  0  0  0  0  0  0  0
    0.7730    7.3160   -0.4990 N   0  0  0  0  0  0  0  0  0  0  0  0
    0.3340    8.7070   -0.6500 C   0  0  2  0  0  0  0  0  0  0  0  0
    1.3620    9.7120   -0.1870 C   0  0  0  0  0  0  0  0  0  0  0  0
    0.6070   11.0070   -0.4430 C   0  0  1  0  0  0  0  0  0  0  0  0
   -0.8260   10.6650   -0.2040 N   0  0  0  0  0  0  0  0  0  0  0  0
   -0.8530    9.2170    0.0530 N   0  0  0  0  0  0  0  0  0  0  0  0
    1.0750   12.1900    0.3870 C   0  0  0  0  0  0  0  0  0  0  0  0
   -1.6900    8.7740   -0.3350 H   0  0  0  0  0  0  0  0  0  0  0  0
   -1.1770   11.2090    0.5940 H   0  0  0  0  0  0  0  0  0  0  0  0
    2.2940    9.6500   -0.7560 H   0  0  0  0  0  0  0  0  0  0  0  0
    0.7130   11.2960   -1.4960 H   0  0  0  0  0  0  0  0  0  0  0  0
    1.6060    9.5820    0.8770 H   0  0  0  0  0  0  0  0  0  0  0  0
    0.1610    8.8350   -1.7280 H   0  0  0  0  0  0  0  0  0  0  0  0
    0.1120   13.1180    0.5850 O   0  0  0  0  0  0  0  0  0  0  0  0
    2.2140   12.4000    0.7730 O   0  0  0  0  0  0  0  0  0  0  0  0
    0.5790   13.8680    1.0090 H   0  0  0  0  0  0  0  0  0  0  0  0
  1  5  1  0  0  0  0
  2  1  1  0  0  0  0
  3  2  2  0  0  0  0
  4  2  1  1  0  0  0
  4 10  5  0  0  0  0
  6  4  5  0  0  0  0
  6  7  5  0  0  0  0
  6 19  1  6  0  0  0
  7 12  1  6  0  0  0
  8  7  5  0  0  0  0
  8 11  1  6  0  0  0
  9  8  5  0  0  0  0
  9 15  1  0  0  0  0
 10  9  5  0  0  0  0
 10 14  1  0  0  0  0
 13 16  1  0  0  0  0
 13 17  1  0  0  0  0
 13 18  1  0  0  0  0
 13 19  1  0  0  0  0
 20 11  2  0  0  0  0
 21 20  1  0  0  0  0
 21 25  1  0  0  0  0
 21 32  1  6  0  0  0
 22 21  1  0  0  0  0
 22 29  1  0  0  0  0
 22 31  1  0  0  0  0
 23 22  1  0  0  0  0
 23 30  1  6  0  0  0
 24 23  1  0  0  0  0
 25 24  1  0  0  0  0
 26 23  1  0  0  0  0
 26 34  2  0  0  0  0
 27 25  1  0  0  0  0
 28 24  1  0  0  0  0
 33 26  1  0  0  0  0
 35 33  1  0  0  0  0
M  END
