
 OpenBabel11042013053D

 20 20  0  0  1  0  0  0  0  0999 V2000
    1.2540    0.4290    0.1700 O   0  0  0  0  0  0  0  0  0  0  0  0
    0.0390    0.9630    0.4190 C   0  0  0  0  0  0  0  0  0  0  0  0
   -0.9020    0.2660    0.7670 O   0  0  0  0  0  0  0  0  0  0  0  0
   -0.0590    2.4340    0.1960 C   0  0  1  0  0  0  0  0  0  0  0  0
    1.9860    1.0680    0.0640 H   0  0  0  0  0  0  0  0  0  0  0  0
   -1.1510    3.0160   -0.3440 C   0  0  1  0  0  0  0  0  0  0  0  0
   -1.2030    4.3660   -0.4960 C   0  0  1  0  0  0  0  0  0  0  0  0
   -0.1710    5.1320   -0.0610 C   0  0  1  0  0  0  0  0  0  0  0  0
    0.9450    4.5490    0.4440 C   0  0  1  0  0  0  0  0  0  0  0  0
    0.9810    3.2080    0.5650 C   0  0  2  0  0  0  0  0  0  0  0  0
   -0.1960    6.6180   -0.1180 C   0  0  0  0  0  0  0  0  0  0  0  0
   -2.2950    4.9540   -1.1230 O   0  0  0  0  0  0  0  0  0  0  0  0
   -2.5260    2.0930   -0.8970 Cl  0  0  0  0  0  0  0  0  0  0  0  0
    2.1050    2.6350    1.0550 F   0  0  0  0  0  0  0  0  0  0  0  0
    2.0700    5.2610    0.8420 O   0  0  0  0  0  0  0  0  0  0  0  0
    2.0240    6.2150    0.6170 H   0  0  0  0  0  0  0  0  0  0  0  0
   -2.9100    4.2920   -1.4910 H   0  0  0  0  0  0  0  0  0  0  0  0
   -1.4130    7.1690    0.0010 O   0  0  0  0  0  0  0  0  0  0  0  0
    0.8030    7.3250   -0.1430 O   0  0  0  0  0  0  0  0  0  0  0  0
   -1.2690    8.1370   -0.0270 H   0  0  0  0  0  0  0  0  0  0  0  0
  1  5  1  0  0  0  0
  2  1  1  0  0  0  0
  3  2  2  0  0  0  0
  4  2  1  1  0  0  0
  4 10  5  0  0  0  0
  6  4  5  0  0  0  0
  6  7  5  0  0  0  0
  6 13  1  6  0  0  0
  7 12  1  6  0  0  0
  8  7  5  0  0  0  0
  8 11  1  6  0  0  0
  9  8  5  0  0  0  0
  9 15  1  6  0  0  0
 10  9  5  0  0  0  0
 10 14  1  6  0  0  0
 11 19  2  0  0  0  0
 12 17  1  0  0  0  0
 15 16  1  0  0  0  0
 18 11  1  0  0  0  0
 20 18  1  0  0  0  0
M  END
