34

O          1.18400       -0.62700        0.01400
C          0.01800        0.05200        0.06300
O         -1.04900       -0.53500        0.16900
C          0.12700        1.54400       -0.01700
H          1.99000       -0.10700       -0.12800
C         -1.02700        2.23800       -0.09000
C         -1.02200        3.58800       -0.13600
C          0.12500        4.32600       -0.09600
C          1.25900        3.58600       -0.02000
C          1.27700        2.23900        0.01600
C          0.10900        5.85000       -0.05500
H         -2.00800        4.03400       -0.18200
H         -1.98400        1.71900       -0.10000
H          2.25100        1.77400        0.09600
H          2.24100        4.02200        0.04400
C         -1.10100        6.48500        0.03000
C         -1.23600        7.81500        0.17700
C         -0.15500        8.60600        0.25100
C          1.04900        8.02300        0.12400
C          1.19500        6.69300       -0.05100
N         -0.24900        9.95700        0.45600
H         -2.22600        8.25600        0.25100
H         -2.04400        5.95400       -0.00200
Cl         2.87200        6.26100       -0.27000
H          1.92400        8.66900        0.16500
N         -0.16500       10.62700       -0.59300
C          0.09900       11.94300       -0.36600
C         -0.83600       12.88300       -0.20600
C         -0.39400       14.25800        0.00800
H         -1.89500       12.66400       -0.22600
H          1.15700       12.19400       -0.33500
O         -1.45000       15.07600        0.11900
O          0.75000       14.66200        0.07500
H         -1.04600       15.96000        0.24500
