
 OpenBabel11042013053D

 34 35  0  0  1  0  0  0  0  0999 V2000
    1.1840   -0.6270    0.0140 O   0  0  0  0  0  0  0  0  0  0  0  0
    0.0180    0.0520    0.0630 C   0  0  0  0  0  0  0  0  0  0  0  0
   -1.0490   -0.5350    0.1690 O   0  0  0  0  0  0  0  0  0  0  0  0
    0.1270    1.5440   -0.0170 C   0  0  1  0  0  0  0  0  0  0  0  0
    1.9900   -0.1070   -0.1280 H   0  0  0  0  0  0  0  0  0  0  0  0
   -1.0270    2.2380   -0.0900 C   0  0  0  0  0  0  0  0  0  0  0  0
   -1.0220    3.5880   -0.1360 C   0  0  0  0  0  0  0  0  0  0  0  0
    0.1250    4.3260   -0.0960 C   0  0  2  0  0  0  0  0  0  0  0  0
    1.2590    3.5860   -0.0200 C   0  0  0  0  0  0  0  0  0  0  0  0
    1.2770    2.2390    0.0160 C   0  0  0  0  0  0  0  0  0  0  0  0
    0.1090    5.8500   -0.0550 C   0  0  1  0  0  0  0  0  0  0  0  0
   -2.0080    4.0340   -0.1820 H   0  0  0  0  0  0  0  0  0  0  0  0
   -1.9840    1.7190   -0.1000 H   0  0  0  0  0  0  0  0  0  0  0  0
    2.2510    1.7740    0.0960 H   0  0  0  0  0  0  0  0  0  0  0  0
    2.2410    4.0220    0.0440 H   0  0  0  0  0  0  0  0  0  0  0  0
   -1.1010    6.4850    0.0300 C   0  0  0  0  0  0  0  0  0  0  0  0
   -1.2360    7.8150    0.1770 C   0  0  0  0  0  0  0  0  0  0  0  0
   -0.1550    8.6060    0.2510 C   0  0  2  0  0  0  0  0  0  0  0  0
    1.0490    8.0230    0.1240 C   0  0  0  0  0  0  0  0  0  0  0  0
    1.1950    6.6930   -0.0510 C   0  0  2  0  0  0  0  0  0  0  0  0
   -0.2490    9.9570    0.4560 N   0  0  0  0  0  0  0  0  0  0  0  0
   -2.2260    8.2560    0.2510 H   0  0  0  0  0  0  0  0  0  0  0  0
   -2.0440    5.9540   -0.0020 H   0  0  0  0  0  0  0  0  0  0  0  0
    2.8720    6.2610   -0.2700 Cl  0  0  0  0  0  0  0  0  0  0  0  0
    1.9240    8.6690    0.1650 H   0  0  0  0  0  0  0  0  0  0  0  0
   -0.1650   10.6270   -0.5930 N   0  0  0  0  0  0  0  0  0  0  0  0
    0.0990   11.9430   -0.3660 C   0  0  0  0  0  0  0  0  0  0  0  0
   -0.8360   12.8830   -0.2060 C   0  0  0  0  0  0  0  0  0  0  0  0
   -0.3940   14.2580    0.0080 C   0  0  0  0  0  0  0  0  0  0  0  0
   -1.8950   12.6640   -0.2260 H   0  0  0  0  0  0  0  0  0  0  0  0
    1.1570   12.1940   -0.3350 H   0  0  0  0  0  0  0  0  0  0  0  0
   -1.4500   15.0760    0.1190 O   0  0  0  0  0  0  0  0  0  0  0  0
    0.7500   14.6620    0.0750 O   0  0  0  0  0  0  0  0  0  0  0  0
   -1.0460   15.9600    0.2450 H   0  0  0  0  0  0  0  0  0  0  0  0
  1  5  1  0  0  0  0
  2  1  1  0  0  0  0
  3  2  2  0  0  0  0
  4  2  1  1  0  0  0
  4 10  5  0  0  0  0
  6  4  5  0  0  0  0
  6  7  5  0  0  0  0
  6 13  1  0  0  0  0
  7 12  1  0  0  0  0
  8  7  5  1  0  0  0
  8 11  1  0  0  0  0
  9  8  5  0  0  0  0
  9 15  1  0  0  0  0
 10  9  5  0  0  0  0
 10 14  1  0  0  0  0
 11 16  5  1  0  0  0
 11 20  5  0  0  0  0
 16 17  5  0  0  0  0
 16 23  1  0  0  0  0
 17 22  1  0  0  0  0
 18 17  5  0  0  0  0
 18 21  1  1  0  0  0
 19 18  5  0  0  0  0
 19 25  1  0  0  0  0
 20 19  5  0  0  0  0
 20 24  1  6  0  0  0
 26 21  2  0  0  0  0
 27 26  1  0  0  0  0
 27 31  1  0  0  0  0
 28 27  2  0  0  0  0
 28 30  1  0  0  0  0
 29 28  1  0  0  0  0
 29 33  2  0  0  0  0
 32 29  1  0  0  0  0
 34 32  1  0  0  0  0
M  END
