39

O          1.22500        0.67700        0.00300
C          0.06600        1.37200       -0.05200
O         -0.99200        0.76300       -0.09100
C          0.17900        2.88100       -0.04600
H          2.05500        1.17000        0.06300
C         -0.95900        3.62300       -0.01600
C         -0.89000        4.96700        0.03100
C          0.28600        5.64900        0.07400
C          1.40600        4.89900        0.00200
C          1.36000        3.54900       -0.06500
C          0.28700        7.15900        0.34200
H         -1.83100        5.50200        0.10200
N         -2.26500        3.06000        0.02600
H          2.31700        3.05100       -0.09700
F          2.61700        5.49400        0.04100
C          1.35200        8.18600       -0.10400
C          0.69900        9.52800        0.34200
N         -0.74800        9.19900        0.39300
N         -0.89400        7.88500       -0.15700
C          0.91300       10.80300       -0.51100
H         -1.75200        7.46500        0.20000
H         -1.28500        9.90800       -0.12200
H          2.31200        8.02700        0.39900
H          1.00500        9.73300        1.37600
H          1.51600        8.15600       -1.18900
H          0.26600        7.20200        1.44500
H         -3.02800        3.56900       -0.40400
H         -2.33000        2.04900       -0.12700
C          2.06000       11.71500       -0.12600
N          1.38900       12.99400       -0.05400
N          0.04200       12.88500       -0.09600
N         -0.27500       11.69400       -0.31500
C          1.99300       14.22200       -0.00600
H          2.85600       11.75300       -0.87500
H          2.49900       11.50200        0.85400
H          0.95300       10.55600       -1.57700
O          1.12600       15.25900        0.06000
O          3.19500       14.44000       -0.03300
H          1.69200       16.05600        0.06200
