34

O          1.37300        0.28500        0.62600
C          0.15200        0.87100        0.55000
O         -0.86000        0.18800        0.53400
C          0.19100        2.37300        0.44700
H          2.11600        0.92300        0.58000
C         -0.85900        3.11800        0.88600
C         -0.79900        4.47600        0.83300
C          0.21600        5.09800        0.18000
C          1.24200        4.32500       -0.25500
C          1.24600        2.99000       -0.11100
C          0.19500        6.52800       -0.35200
Cl        -2.08200        5.38300        1.59600
C         -2.88200        2.37000        0.09300
O          2.31100        2.28700       -0.65100
H          2.08000        4.78000       -0.77800
H         -3.84700        2.84600        0.28300
H         -2.44900        2.83300       -0.80700
H         -3.04200        1.31000       -0.11800
O         -2.05300        2.50800        1.26800
O          0.74000        7.56100        0.48400
C         -1.14000        8.51300       -0.44900
C         -1.11900        7.07800       -0.93100
C          0.65400       10.13400        0.42400
H         -2.03500        6.55200       -0.66600
H         -1.57900        9.19300       -1.18400
H         -1.71500        8.58900        0.48100
H         -1.07500        7.03600       -2.02500
H          0.86000        8.79800       -1.15200
C          0.33300        8.76900       -0.18400
H          0.87100        6.51900       -1.22300
H          2.07800        1.93200       -1.53300
O         -0.36400       11.01700        0.34300
O          1.74400       10.50200        0.83400
H          0.01800       11.85500        0.68000
