28

O          1.08200       -0.22700       -0.00000
C          0.02700        0.59000       -0.00000
O         -1.10700        0.12700       -0.00000
C          0.28200        2.04500        0.00000
H          1.95000        0.21000       -0.00000
C         -0.91900        2.63700        0.00000
C         -1.08100        3.94100        0.00000
C          0.04300        4.71800       -0.00000
C          1.27900        4.12500        0.00000
C          1.41100        2.78300        0.00000
C         -0.14200        6.20300       -0.00000
Br        -2.94700        4.43900       -0.00000
H         -1.83700        2.08300        0.00000
Br         3.12200        2.01700        0.00000
H          2.23300        4.66700       -0.00000
C          0.99900        7.09600        0.00000
N          0.44500        8.27900       -0.00000
N         -0.85100        8.39500        0.00000
N         -1.26300        7.25000       -0.00000
C          1.13700        9.45000        0.00000
H          2.06700        7.43200       -0.00000
H          1.82400        6.34200       -0.00000
H         -1.16800        5.92900        0.00000
C          0.83300       10.57800        0.00000
C          0.37700       11.90700       -0.00000
O         -0.94600       12.14100        0.00000
O          1.26700       12.72100        0.00000
H         -0.98500       13.11100       -0.00000
