
 OpenBabel02032115563D

 29 29  0  0  1  0  0  0  0  0999 V2000
    1.6100    0.0290   -0.0120 O   0  0  0  0  0  0  0  0  0  0  0  0
    0.5630    0.8420    0.0560 C   0  0  0  0  0  0  0  0  0  0  0  0
   -0.3980    0.1080    0.1570 O   0  0  0  0  0  0  0  0  0  0  0  0
    0.2530    2.2830    0.0290 C   0  0  2  0  0  0  0  0  0  0  0  0
    2.5030    0.4170    0.0000 H   0  0  0  0  0  0  0  0  0  0  0  0
   -1.0260    2.7640    0.0740 C   0  0  2  0  0  0  0  0  0  0  0  0
   -1.2610    4.0790    0.0280 C   0  0  0  0  0  0  0  0  0  0  0  0
   -0.3070    5.0000   -0.0730 C   0  0  2  0  0  0  0  0  0  0  0  0
    0.9610    4.5410   -0.1280 C   0  0  1  0  0  0  0  0  0  0  0  0
    1.2430    3.2110   -0.0720 C   0  0  1  0  0  0  0  0  0  0  0  0
   -0.6570    6.2620   -0.0990 N   0  0  0  0  0  0  0  0  0  0  0  0
   -2.2950    4.4220    0.0760 H   0  0  0  0  0  0  0  0  0  0  0  0
   -2.1530    2.0250    0.1680 N   0  0  0  0  0  0  0  0  0  0  0  0
    2.7220    2.8010   -0.0690 C   0  0  0  0  0  0  0  0  0  0  0  0
    2.1810    6.5740    0.5330 C   0  0  0  0  0  0  0  0  0  0  0  0
    2.9280    1.9570    0.5860 H   0  0  0  0  0  0  0  0  0  0  0  0
    3.0550    2.5620   -1.0820 H   0  0  0  0  0  0  0  0  0  0  0  0
    3.3780    3.5830    0.3190 H   0  0  0  0  0  0  0  0  0  0  0  0
    1.8140    6.3710    1.5430 H   0  0  0  0  0  0  0  0  0  0  0  0
    1.6370    7.4090    0.0900 H   0  0  0  0  0  0  0  0  0  0  0  0
    3.2400    6.8370    0.5700 H   0  0  0  0  0  0  0  0  0  0  0  0
    2.0240    5.4030   -0.3070 O   0  0  0  0  0  0  0  0  0  0  0  0
   -2.0940    1.0070    0.1700 H   0  0  0  0  0  0  0  0  0  0  0  0
   -2.9780    2.2830   -0.3710 H   0  0  0  0  0  0  0  0  0  0  0  0
   -1.0810    7.4830   -0.1210 N   0  0  0  0  0  0  0  0  0  0  0  0
   -0.9490    8.8930   -0.1110 C   0  0  0  0  0  0  0  0  0  0  0  0
   -2.0390    9.6270   -0.0360 O   0  0  0  0  0  0  0  0  0  0  0  0
    0.1280    9.4500   -0.1070 O   0  0  0  0  0  0  0  0  0  0  0  0
   -1.8020   10.5940    0.0000 H   0  0  0  0  0  0  0  0  0  0  0  0
  1  5  1  0  0  0  0
  2  1  1  0  0  0  0
  3  2  2  0  0  0  0
  4  2  1  6  0  0  0
  4 10  5  0  0  0  0
  6  4  5  0  0  0  0
  6  7  5  0  0  0  0
  6 13  1  1  0  0  0
  7 12  1  0  0  0  0
  8  7  5  0  0  0  0
  8 11  1  1  0  0  0
  9  8  5  0  0  0  0
  9 22  1  6  0  0  0
 10  9  5  0  0  0  0
 10 14  1  1  0  0  0
 13 23  1  0  0  0  0
 13 24  1  0  0  0  0
 14 16  1  0  0  0  0
 14 17  1  0  0  0  0
 14 18  1  0  0  0  0
 15 19  1  0  0  0  0
 15 20  1  0  0  0  0
 15 21  1  0  0  0  0
 15 22  1  0  0  0  0
 25 11  2  0  0  0  0
 26 25  1  0  0  0  0
 26 28  2  0  0  0  0
 27 26  1  0  0  0  0
 29 27  1  0  0  0  0
M  END
