
 OpenBabel11042013033D

 51 54  0  0  1  0  0  0  0  0999 V2000
    1.0920    0.6220   -0.0250 O   0  0  0  0  0  0  0  0  0  0  0  0
   -0.0220    1.3700    0.0050 C   0  0  0  0  0  0  0  0  0  0  0  0
   -1.1310    0.8300   -0.0480 O   0  0  0  0  0  0  0  0  0  0  0  0
    0.1340    2.8910    0.0490 C   0  0  2  0  0  0  0  0  0  0  0  0
    1.9430    1.0810    0.0240 H   0  0  0  0  0  0  0  0  0  0  0  0
   -1.0070    3.6230    0.0420 C   0  0  0  0  0  0  0  0  0  0  0  0
   -0.9740    4.9720    0.0040 C   0  0  0  0  0  0  0  0  0  0  0  0
    0.1840    5.6980    0.0170 C   0  0  1  0  0  0  0  0  0  0  0  0
    1.3050    4.9310    0.0550 C   0  0  0  0  0  0  0  0  0  0  0  0
    1.2890    3.5870    0.0890 C   0  0  0  0  0  0  0  0  0  0  0  0
    0.2380    7.3500   -0.2110 C   0  0  2  0  0  0  0  0  0  0  0  0
   -1.9420    5.4630   -0.0220 H   0  0  0  0  0  0  0  0  0  0  0  0
   -1.9770    3.1030    0.0290 H   0  0  0  0  0  0  0  0  0  0  0  0
    2.2380    3.0410    0.0880 H   0  0  0  0  0  0  0  0  0  0  0  0
    2.2770    5.4100    0.0420 H   0  0  0  0  0  0  0  0  0  0  0  0
    1.4010    8.4280    0.1550 C   0  0  0  0  0  0  0  0  0  0  0  0
    0.7470    9.9680   -0.1550 C   0  0  1  0  0  0  0  0  0  0  0  0
   -0.7060    9.5570   -0.1770 N   0  0  0  0  0  0  0  0  0  0  0  0
   -0.8620    8.1410    0.3620 N   0  0  0  0  0  0  0  0  0  0  0  0
    0.9840   11.7550    0.0730 C   0  0  2  0  0  0  0  0  0  0  0  0
   -1.7560    7.7450    0.0600 H   0  0  0  0  0  0  0  0  0  0  0  0
   -1.2480   10.1820    0.4160 H   0  0  0  0  0  0  0  0  0  0  0  0
    2.2410    8.2180   -0.5200 H   0  0  0  0  0  0  0  0  0  0  0  0
    1.0440    9.9980   -1.2150 H   0  0  0  0  0  0  0  0  0  0  0  0
    1.7160    8.2820    1.1950 H   0  0  0  0  0  0  0  0  0  0  0  0
    0.1210    7.3910   -1.3050 H   0  0  0  0  0  0  0  0  0  0  0  0
   -0.0820   12.6280    0.1200 C   0  0  0  0  0  0  0  0  0  0  0  0
   -0.0330   14.0140    0.1600 C   0  0  1  0  0  0  0  0  0  0  0  0
    1.1280   14.7680    0.1720 C   0  0  2  0  0  0  0  0  0  0  0  0
    2.2080   13.9090    0.1150 C   0  0  0  0  0  0  0  0  0  0  0  0
    2.1420   12.5120    0.0710 C   0  0  0  0  0  0  0  0  0  0  0  0
    1.1340   16.5680    0.3120 C   0  0  1  0  0  0  0  0  0  0  0  0
   -1.2950   14.6890    0.1820 C   0  0  0  0  0  0  0  0  0  0  0  0
   -1.0760   12.1850    0.0970 H   0  0  0  0  0  0  0  0  0  0  0  0
    3.0900   11.9790    0.0050 H   0  0  0  0  0  0  0  0  0  0  0  0
    3.1980   14.3640    0.0960 H   0  0  0  0  0  0  0  0  0  0  0  0
    2.3540   17.6260    0.1650 C   0  0  0  0  0  0  0  0  0  0  0  0
    1.8060   19.0220   -0.3300 C   0  0  1  0  0  0  0  0  0  0  0  0
    0.3700   18.7870   -0.4750 N   0  0  0  0  0  0  0  0  0  0  0  0
    0.1110   17.3230   -0.4870 N   0  0  0  0  0  0  0  0  0  0  0  0
    2.1130   20.4610    0.2920 C   0  0  0  0  0  0  0  0  0  0  0  0
   -0.8490   17.1430   -0.1740 H   0  0  0  0  0  0  0  0  0  0  0  0
   -0.1880   19.3950    0.1410 H   0  0  0  0  0  0  0  0  0  0  0  0
    2.9010   17.7490    1.1080 H   0  0  0  0  0  0  0  0  0  0  0  0
    2.2030   19.1910   -1.3400 H   0  0  0  0  0  0  0  0  0  0  0  0
    3.0460   17.2810   -0.6090 H   0  0  0  0  0  0  0  0  0  0  0  0
    0.8420   16.6840    1.3680 H   0  0  0  0  0  0  0  0  0  0  0  0
   -2.3120   15.2500    0.1960 N   0  0  0  0  0  0  0  0  0  0  0  0
    1.0700   21.3420    0.2100 O   0  0  0  0  0  0  0  0  0  0  0  0
    3.2030   20.8990    0.6370 O   0  0  0  0  0  0  0  0  0  0  0  0
    1.4470   22.2450    0.3420 H   0  0  0  0  0  0  0  0  0  0  0  0
  1  5  1  0  0  0  0
  2  1  1  0  0  0  0
  3  2  2  0  0  0  0
  4  2  1  6  0  0  0
  4 10  5  0  0  0  0
  6  4  5  0  0  0  0
  6  7  5  0  0  0  0
  6 13  1  0  0  0  0
  7 12  1  0  0  0  0
  8  7  5  6  0  0  0
  8 11  1  0  0  0  0
  9  8  5  0  0  0  0
  9 15  1  0  0  0  0
 10  9  5  0  0  0  0
 10 14  1  0  0  0  0
 11 19  1  0  0  0  0
 11 26  1  6  0  0  0
 16 11  1  0  0  0  0
 16 23  1  0  0  0  0
 16 25  1  0  0  0  0
 17 16  1  0  0  0  0
 17 24  1  6  0  0  0
 18 17  1  0  0  0  0
 19 18  1  0  0  0  0
 20 17  1  0  0  0  0
 20 27  5  6  0  0  0
 20 31  5  0  0  0  0
 21 19  1  0  0  0  0
 22 18  1  0  0  0  0
 27 28  5  0  0  0  0
 27 34  1  0  0  0  0
 28 33  1  6  0  0  0
 29 28  5  0  0  0  0
 29 30  5  1  0  0  0
 29 32  1  0  0  0  0
 30 36  1  0  0  0  0
 31 30  5  0  0  0  0
 31 35  1  0  0  0  0
 32 40  1  0  0  0  0
 32 47  1  1  0  0  0
 33 48  3  0  0  0  0
 37 32  1  0  0  0  0
 37 44  1  0  0  0  0
 37 46  1  0  0  0  0
 38 37  1  0  0  0  0
 38 45  1  6  0  0  0
 39 38  1  0  0  0  0
 40 39  1  0  0  0  0
 41 38  1  0  0  0  0
 41 50  2  0  0  0  0
 42 40  1  0  0  0  0
 43 39  1  0  0  0  0
 49 41  1  0  0  0  0
 51 49  1  0  0  0  0
M  END
