51

O          1.09200        0.62200       -0.02500
C         -0.02200        1.37000        0.00500
O         -1.13100        0.83000       -0.04800
C          0.13400        2.89100        0.04900
H          1.94300        1.08100        0.02400
C         -1.00700        3.62300        0.04200
C         -0.97400        4.97200        0.00400
C          0.18400        5.69800        0.01700
C          1.30500        4.93100        0.05500
C          1.28900        3.58700        0.08900
C          0.23800        7.35000       -0.21100
H         -1.94200        5.46300       -0.02200
H         -1.97700        3.10300        0.02900
H          2.23800        3.04100        0.08800
H          2.27700        5.41000        0.04200
C          1.40100        8.42800        0.15500
C          0.74700        9.96800       -0.15500
N         -0.70600        9.55700       -0.17700
N         -0.86200        8.14100        0.36200
C          0.98400       11.75500        0.07300
H         -1.75600        7.74500        0.06000
H         -1.24800       10.18200        0.41600
H          2.24100        8.21800       -0.52000
H          1.04400        9.99800       -1.21500
H          1.71600        8.28200        1.19500
H          0.12100        7.39100       -1.30500
C         -0.08200       12.62800        0.12000
C         -0.03300       14.01400        0.16000
C          1.12800       14.76800        0.17200
C          2.20800       13.90900        0.11500
C          2.14200       12.51200        0.07100
C          1.13400       16.56800        0.31200
C         -1.29500       14.68900        0.18200
H         -1.07600       12.18500        0.09700
H          3.09000       11.97900        0.00500
H          3.19800       14.36400        0.09600
C          2.35400       17.62600        0.16500
C          1.80600       19.02200       -0.33000
N          0.37000       18.78700       -0.47500
N          0.11100       17.32300       -0.48700
C          2.11300       20.46100        0.29200
H         -0.84900       17.14300       -0.17400
H         -0.18800       19.39500        0.14100
H          2.90100       17.74900        1.10800
H          2.20300       19.19100       -1.34000
H          3.04600       17.28100       -0.60900
H          0.84200       16.68400        1.36800
N         -2.31200       15.25000        0.19600
O          1.07000       21.34200        0.21000
O          3.20300       20.89900        0.63700
H          1.44700       22.24500        0.34200
