
 OpenBabel11042013053D

 35 36  0  0  1  0  0  0  0  0999 V2000
    1.2390   -0.3460    0.6390 O   0  0  0  0  0  0  0  0  0  0  0  0
    0.2390    0.2950    0.0080 C   0  0  0  0  0  0  0  0  0  0  0  0
   -0.6330   -0.3080   -0.6030 O   0  0  0  0  0  0  0  0  0  0  0  0
    0.2570    1.7850    0.1330 C   0  0  2  0  0  0  0  0  0  0  0  0
    1.7760    0.2220    1.2180 H   0  0  0  0  0  0  0  0  0  0  0  0
   -0.9700    2.3280    0.2660 C   0  0  0  0  0  0  0  0  0  0  0  0
   -1.1630    3.6700    0.2370 C   0  0  1  0  0  0  0  0  0  0  0  0
   -0.0970    4.5000    0.0650 C   0  0  1  0  0  0  0  0  0  0  0  0
    1.1360    3.9290    0.0140 C   0  0  0  0  0  0  0  0  0  0  0  0
    1.3430    2.5900    0.0400 C   0  0  2  0  0  0  0  0  0  0  0  0
   -0.1440    5.9990   -0.2440 C   0  0  2  0  0  0  0  0  0  0  0  0
   -2.5220    4.1110    0.3170 C   0  0  0  0  0  0  0  0  0  0  0  0
   -1.8430    1.6750    0.3480 H   0  0  0  0  0  0  0  0  0  0  0  0
    2.7540    2.0880   -0.1510 C   0  0  0  0  0  0  0  0  0  0  0  0
    1.9990    4.5860   -0.1120 H   0  0  0  0  0  0  0  0  0  0  0  0
    0.6900    6.8210    0.6040 O   0  0  0  0  0  0  0  0  0  0  0  0
   -0.9860    8.2250   -0.3030 C   0  0  0  0  0  0  0  0  0  0  0  0
   -1.4420    6.7820   -0.3100 C   0  0  0  0  0  0  0  0  0  0  0  0
    1.0260    9.3420    0.7650 N   0  0  0  0  0  0  0  0  0  0  0  0
   -2.0490    6.6310    0.5880 H   0  0  0  0  0  0  0  0  0  0  0  0
   -1.1290    8.7200   -1.2690 H   0  0  0  0  0  0  0  0  0  0  0  0
   -1.5920    8.7680    0.4300 H   0  0  0  0  0  0  0  0  0  0  0  0
   -2.0370    6.5430   -1.1960 H   0  0  0  0  0  0  0  0  0  0  0  0
    1.0700    8.1450   -0.8880 H   0  0  0  0  0  0  0  0  0  0  0  0
    0.5040    8.1540    0.0540 C   0  0  1  0  0  0  0  0  0  0  0  0
    0.3000    6.0640   -1.2520 H   0  0  0  0  0  0  0  0  0  0  0  0
   -3.6320    4.4420    0.3780 N   0  0  0  0  0  0  0  0  0  0  0  0
    3.1650    1.7190    0.7950 H   0  0  0  0  0  0  0  0  0  0  0  0
    3.4270    2.8810   -0.4980 H   0  0  0  0  0  0  0  0  0  0  0  0
    2.7950    1.2940   -0.9030 H   0  0  0  0  0  0  0  0  0  0  0  0
    0.1530   10.2020    1.0140 N   0  0  0  0  0  0  0  0  0  0  0  0
    0.5240   11.4710    0.6570 C   0  0  0  0  0  0  0  0  0  0  0  0
   -0.5700   12.2480    0.4930 O   0  0  0  0  0  0  0  0  0  0  0  0
    1.6300   11.9210    0.3920 O   0  0  0  0  0  0  0  0  0  0  0  0
   -0.2000   13.0840    0.1490 H   0  0  0  0  0  0  0  0  0  0  0  0
  1  5  1  0  0  0  0
  2  1  1  0  0  0  0
  3  2  2  0  0  0  0
  4  2  1  6  0  0  0
  4 10  5  0  0  0  0
  6  4  5  0  0  0  0
  6  7  5  0  0  0  0
  6 13  1  0  0  0  0
  7 12  1  6  0  0  0
  8  7  5  0  0  0  0
  8  9  5  6  0  0  0
  8 11  1  0  0  0  0
  9 15  1  0  0  0  0
 10  9  5  0  0  0  0
 10 14  1  6  0  0  0
 11 18  1  0  0  0  0
 11 26  1  6  0  0  0
 12 27  3  0  0  0  0
 14 28  1  0  0  0  0
 14 29  1  0  0  0  0
 14 30  1  0  0  0  0
 16 11  1  0  0  0  0
 17 25  1  0  0  0  0
 17 22  1  0  0  0  0
 18 17  1  0  0  0  0
 18 23  1  0  0  0  0
 19 25  1  0  0  0  0
 20 18  1  0  0  0  0
 21 17  1  0  0  0  0
 25 16  1  0  0  0  0
 25 24  1  6  0  0  0
 31 19  2  0  0  0  0
 32 31  1  0  0  0  0
 32 34  2  0  0  0  0
 33 32  1  0  0  0  0
 35 33  1  0  0  0  0
M  END
