
 OpenBabel11042013053D

 21 21  0  0  1  0  0  0  0  0999 V2000
    1.0930    0.7220   -0.4070 O   0  0  0  0  0  0  0  0  0  0  0  0
   -0.1210    1.2380   -0.1240 C   0  0  0  0  0  0  0  0  0  0  0  0
   -1.0560    0.4740    0.0400 O   0  0  0  0  0  0  0  0  0  0  0  0
   -0.1660    2.7370   -0.0900 C   0  0  1  0  0  0  0  0  0  0  0  0
    0.9640   -0.2520   -0.3740 H   0  0  0  0  0  0  0  0  0  0  0  0
   -1.3610    3.3730   -0.1840 C   0  0  2  0  0  0  0  0  0  0  0  0
   -1.3980    4.7230   -0.2020 C   0  0  1  0  0  0  0  0  0  0  0  0
   -0.2770    5.4820   -0.1440 C   0  0  2  0  0  0  0  0  0  0  0  0
    0.9270    4.8520   -0.0220 C   0  0  1  0  0  0  0  0  0  0  0  0
    0.9610    3.4880    0.0410 C   0  0  1  0  0  0  0  0  0  0  0  0
   -0.3870    6.9770   -0.1750 C   0  0  0  0  0  0  0  0  0  0  0  0
   -2.6140    5.3020   -0.2910 F   0  0  0  0  0  0  0  0  0  0  0  0
   -2.6200    2.6880   -0.2290 C   0  0  0  0  0  0  0  0  0  0  0  0
    2.2350    2.8590    0.3150 N   0  0  0  0  0  0  0  0  0  0  0  0
    2.5900    5.8010    0.0560 Br  0  0  0  0  0  0  0  0  0  0  0  0
   -3.6620    2.1750   -0.2240 N   0  0  0  0  0  0  0  0  0  0  0  0
    2.3440    2.0250   -0.2770 H   0  0  0  0  0  0  0  0  0  0  0  0
    2.1720    2.3910    1.2260 H   0  0  0  0  0  0  0  0  0  0  0  0
   -1.6430    7.4530   -0.1060 O   0  0  0  0  0  0  0  0  0  0  0  0
    0.5120    7.7920   -0.2270 O   0  0  0  0  0  0  0  0  0  0  0  0
   -1.5120    8.4260   -0.1100 H   0  0  0  0  0  0  0  0  0  0  0  0
  1  5  1  0  0  0  0
  2  1  1  0  0  0  0
  3  2  2  0  0  0  0
  4  2  1  1  0  0  0
  4 10  5  0  0  0  0
  6  4  5  0  0  0  0
  6  7  5  0  0  0  0
  6 13  1  1  0  0  0
  7 12  1  6  0  0  0
  8  7  5  0  0  0  0
  8 11  1  1  0  0  0
  9  8  5  0  0  0  0
  9 15  1  6  0  0  0
 10  9  5  0  0  0  0
 10 14  1  1  0  0  0
 11 20  2  0  0  0  0
 13 16  3  0  0  0  0
 14 17  1  0  0  0  0
 14 18  1  0  0  0  0
 19 11  1  0  0  0  0
 21 19  1  0  0  0  0
M  END
