21

O          1.09300        0.72200       -0.40700
C         -0.12100        1.23800       -0.12400
O         -1.05600        0.47400        0.04000
C         -0.16600        2.73700       -0.09000
H          0.96400       -0.25200       -0.37400
C         -1.36100        3.37300       -0.18400
C         -1.39800        4.72300       -0.20200
C         -0.27700        5.48200       -0.14400
C          0.92700        4.85200       -0.02200
C          0.96100        3.48800        0.04100
C         -0.38700        6.97700       -0.17500
F         -2.61400        5.30200       -0.29100
C         -2.62000        2.68800       -0.22900
N          2.23500        2.85900        0.31500
Br         2.59000        5.80100        0.05600
N         -3.66200        2.17500       -0.22400
H          2.34400        2.02500       -0.27700
H          2.17200        2.39100        1.22600
O         -1.64300        7.45300       -0.10600
O          0.51200        7.79200       -0.22700
H         -1.51200        8.42600       -0.11000
