
 OpenBabel11042013053D

 42 43  0  0  1  0  0  0  0  0999 V2000
    1.4640    0.3840    0.5820 O   0  0  0  0  0  0  0  0  0  0  0  0
    0.2260    0.4560    0.0500 C   0  0  0  0  0  0  0  0  0  0  0  0
   -0.4140   -0.5190   -0.2820 O   0  0  0  0  0  0  0  0  0  0  0  0
   -0.1130    1.8810   -0.1220 C   0  0  2  0  0  0  0  0  0  0  0  0
    1.9640   -0.2780    0.0720 H   0  0  0  0  0  0  0  0  0  0  0  0
   -1.3340    2.4700   -0.0050 C   0  0  2  0  0  0  0  0  0  0  0  0
   -1.3780    3.8390   -0.0280 C   0  0  1  0  0  0  0  0  0  0  0  0
   -0.2200    4.6170   -0.1060 C   0  0  2  0  0  0  0  0  0  0  0  0
    0.8610    3.9780   -0.6380 C   0  0  1  0  0  0  0  0  0  0  0  0
    0.8970    2.6270   -0.5790 C   0  0  0  0  0  0  0  0  0  0  0  0
   -0.2450    6.1230    0.4250 C   0  0  1  0  0  0  0  0  0  0  0  0
   -2.7960    4.4270   -0.2000 C   0  0  0  0  0  0  0  0  0  0  0  0
   -2.5770    1.6260    0.2450 C   0  0  0  0  0  0  0  0  0  0  0  0
    1.8010    2.1480   -0.9440 H   0  0  0  0  0  0  0  0  0  0  0  0
    2.7440    5.4780   -0.6860 C   0  0  0  0  0  0  0  0  0  0  0  0
   -3.1790    1.5760   -0.6630 H   0  0  0  0  0  0  0  0  0  0  0  0
   -2.3680    0.6050    0.5660 H   0  0  0  0  0  0  0  0  0  0  0  0
   -3.1910    2.0440    1.0520 H   0  0  0  0  0  0  0  0  0  0  0  0
    0.8850    7.0550    0.4170 O   0  0  0  0  0  0  0  0  0  0  0  0
   -1.0320    8.3200   -0.0050 C   0  0  0  0  0  0  0  0  0  0  0  0
   -1.3640    6.9050   -0.1880 C   0  0  0  0  0  0  0  0  0  0  0  0
    0.8660    9.7920    0.3460 C   0  0  0  0  0  0  0  0  0  0  0  0
   -2.2930    6.7540    0.3360 H   0  0  0  0  0  0  0  0  0  0  0  0
   -1.3920    8.6560    0.9770 H   0  0  0  0  0  0  0  0  0  0  0  0
   -1.5100    8.9210   -0.7830 H   0  0  0  0  0  0  0  0  0  0  0  0
   -1.4280    6.6850   -1.2530 H   0  0  0  0  0  0  0  0  0  0  0  0
    0.7750    8.3160   -1.1410 H   0  0  0  0  0  0  0  0  0  0  0  0
    0.4660    8.3400   -0.0900 C   0  0  1  0  0  0  0  0  0  0  0  0
   -0.4070    5.9910    1.5070 H   0  0  0  0  0  0  0  0  0  0  0  0
   -3.6300    4.7100    1.0390 C   0  0  0  0  0  0  0  0  0  0  0  0
   -3.3770    4.0430    1.8630 H   0  0  0  0  0  0  0  0  0  0  0  0
   -4.6880    4.5790    0.7890 H   0  0  0  0  0  0  0  0  0  0  0  0
   -3.5290    5.7310    1.4090 H   0  0  0  0  0  0  0  0  0  0  0  0
   -2.8130    5.2750   -0.8920 H   0  0  0  0  0  0  0  0  0  0  0  0
   -3.3680    3.7400   -0.8400 H   0  0  0  0  0  0  0  0  0  0  0  0
    2.4290    6.4370   -1.0960 H   0  0  0  0  0  0  0  0  0  0  0  0
    2.6780    5.4050    0.3950 H   0  0  0  0  0  0  0  0  0  0  0  0
    3.7670    5.3150   -0.9990 H   0  0  0  0  0  0  0  0  0  0  0  0
    1.9420    4.4920   -1.3130 O   0  0  0  0  0  0  0  0  0  0  0  0
   -0.1910   10.6530    0.2950 O   0  0  0  0  0  0  0  0  0  0  0  0
    1.9870   10.2250    0.5710 O   0  0  0  0  0  0  0  0  0  0  0  0
    0.1300   11.5720    0.3720 H   0  0  0  0  0  0  0  0  0  0  0  0
  1  5  1  0  0  0  0
  2  1  1  0  0  0  0
  3  2  2  0  0  0  0
  4  2  1  6  0  0  0
  4 10  5  0  0  0  0
  6  4  5  0  0  0  0
  6  7  5  0  0  0  0
  6 13  1  1  0  0  0
  7 12  1  6  0  0  0
  8  7  5  0  0  0  0
  8 11  1  1  0  0  0
  9  8  5  0  0  0  0
  9 39  1  6  0  0  0
 10  9  5  0  0  0  0
 10 14  1  0  0  0  0
 11 21  1  0  0  0  0
 11 29  1  1  0  0  0
 12 34  1  0  0  0  0
 12 35  1  0  0  0  0
 13 16  1  0  0  0  0
 13 17  1  0  0  0  0
 13 18  1  0  0  0  0
 15 36  1  0  0  0  0
 15 37  1  0  0  0  0
 15 38  1  0  0  0  0
 15 39  1  0  0  0  0
 19 11  1  0  0  0  0
 20 28  1  0  0  0  0
 20 25  1  0  0  0  0
 21 20  1  0  0  0  0
 21 26  1  0  0  0  0
 22 28  1  0  0  0  0
 22 41  2  0  0  0  0
 23 21  1  0  0  0  0
 24 20  1  0  0  0  0
 28 19  1  0  0  0  0
 28 27  1  6  0  0  0
 30 31  1  0  0  0  0
 30 32  1  0  0  0  0
 30 33  1  0  0  0  0
 30 12  1  0  0  0  0
 40 22  1  0  0  0  0
 42 40  1  0  0  0  0
M  END
