47

O          1.06600       -0.43800       -0.03200
C         -0.02300        0.35000       -0.16300
O         -1.11900       -0.12500       -0.42300
C          0.21700        1.81400        0.02300
H          1.86900       -0.00400        0.29500
C         -0.88500        2.58700        0.16900
C         -0.77500        3.92700        0.29500
C          0.44300        4.50900        0.28600
C          1.54300        3.73700        0.16100
C          1.43200        2.40000        0.02500
C          0.60400        5.94300        0.36600
H         -1.67500        4.52600        0.39600
H         -1.88200        2.14600        0.16700
H          2.35400        1.84700       -0.10900
H          2.53100        4.19400        0.15300
C          0.20800        6.78900       -0.60000
C          0.37400        8.21800       -0.46200
H         -0.30800        6.42700       -1.48600
H          1.10300        6.31700        1.25900
C         -0.72500        9.00300       -0.41000
C         -0.63900       10.32300       -0.13500
C          0.58700       10.88600        0.08800
C          1.68700       10.10700       -0.05100
C          1.58200        8.79200       -0.31500
C          0.74300       12.35200        0.53100
C         -3.03900       10.63600        0.28900
H         -1.69300        8.53900       -0.56700
H          2.48600        8.18900       -0.38400
H          2.67900       10.52900        0.09100
H         -3.06200        9.59900        0.62400
H         -3.42300       11.25900        1.10200
H         -3.69100       10.77500       -0.57800
O         -1.75100       11.12700       -0.02700
O          1.97600       12.96500        0.07900
C          0.30300       14.64300        0.11000
C         -0.36600       13.31300        0.12200
C          2.64900       15.41600        0.07200
H         -0.72500       13.10200       -0.89200
H          0.31400       15.06700        1.12100
H         -0.20500       15.35500       -0.54900
H         -1.21000       13.29900        0.81700
H          1.74000       14.26200       -1.46500
C          1.69900       14.30000       -0.37100
H          0.80900       12.33600        1.62800
O          2.14600       16.64500       -0.20600
O          3.74000       15.30800        0.60500
H          2.80200       17.27800        0.15100
