
 OpenBabel11042013053D

 47 49  0  0  1  0  0  0  0  0999 V2000
    1.0660   -0.4380   -0.0320 O   0  0  0  0  0  0  0  0  0  0  0  0
   -0.0230    0.3500   -0.1630 C   0  0  0  0  0  0  0  0  0  0  0  0
   -1.1190   -0.1250   -0.4230 O   0  0  0  0  0  0  0  0  0  0  0  0
    0.2170    1.8140    0.0230 C   0  0  2  0  0  0  0  0  0  0  0  0
    1.8690   -0.0040    0.2950 H   0  0  0  0  0  0  0  0  0  0  0  0
   -0.8850    2.5870    0.1690 C   0  0  0  0  0  0  0  0  0  0  0  0
   -0.7750    3.9270    0.2950 C   0  0  0  0  0  0  0  0  0  0  0  0
    0.4430    4.5090    0.2860 C   0  0  1  0  0  0  0  0  0  0  0  0
    1.5430    3.7370    0.1610 C   0  0  0  0  0  0  0  0  0  0  0  0
    1.4320    2.4000    0.0250 C   0  0  0  0  0  0  0  0  0  0  0  0
    0.6040    5.9430    0.3660 C   0  0  0  0  0  0  0  0  0  0  0  0
   -1.6750    4.5260    0.3960 H   0  0  0  0  0  0  0  0  0  0  0  0
   -1.8820    2.1460    0.1670 H   0  0  0  0  0  0  0  0  0  0  0  0
    2.3540    1.8470   -0.1090 H   0  0  0  0  0  0  0  0  0  0  0  0
    2.5310    4.1940    0.1530 H   0  0  0  0  0  0  0  0  0  0  0  0
    0.2080    6.7890   -0.6000 C   0  0  0  0  0  0  0  0  0  0  0  0
    0.3740    8.2180   -0.4620 C   0  0  1  0  0  0  0  0  0  0  0  0
   -0.3080    6.4270   -1.4860 H   0  0  0  0  0  0  0  0  0  0  0  0
    1.1030    6.3170    1.2590 H   0  0  0  0  0  0  0  0  0  0  0  0
   -0.7250    9.0030   -0.4100 C   0  0  0  0  0  0  0  0  0  0  0  0
   -0.6390   10.3230   -0.1350 C   0  0  2  0  0  0  0  0  0  0  0  0
    0.5870   10.8860    0.0880 C   0  0  2  0  0  0  0  0  0  0  0  0
    1.6870   10.1070   -0.0510 C   0  0  0  0  0  0  0  0  0  0  0  0
    1.5820    8.7920   -0.3150 C   0  0  0  0  0  0  0  0  0  0  0  0
    0.7430   12.3520    0.5310 C   0  0  1  0  0  0  0  0  0  0  0  0
   -3.0390   10.6360    0.2890 C   0  0  0  0  0  0  0  0  0  0  0  0
   -1.6930    8.5390   -0.5670 H   0  0  0  0  0  0  0  0  0  0  0  0
    2.4860    8.1890   -0.3840 H   0  0  0  0  0  0  0  0  0  0  0  0
    2.6790   10.5290    0.0910 H   0  0  0  0  0  0  0  0  0  0  0  0
   -3.0620    9.5990    0.6240 H   0  0  0  0  0  0  0  0  0  0  0  0
   -3.4230   11.2590    1.1020 H   0  0  0  0  0  0  0  0  0  0  0  0
   -3.6910   10.7750   -0.5780 H   0  0  0  0  0  0  0  0  0  0  0  0
   -1.7510   11.1270   -0.0270 O   0  0  0  0  0  0  0  0  0  0  0  0
    1.9760   12.9650    0.0790 O   0  0  0  0  0  0  0  0  0  0  0  0
    0.3030   14.6430    0.1100 C   0  0  0  0  0  0  0  0  0  0  0  0
   -0.3660   13.3130    0.1220 C   0  0  0  0  0  0  0  0  0  0  0  0
    2.6490   15.4160    0.0720 C   0  0  0  0  0  0  0  0  0  0  0  0
   -0.7250   13.1020   -0.8920 H   0  0  0  0  0  0  0  0  0  0  0  0
    0.3140   15.0670    1.1210 H   0  0  0  0  0  0  0  0  0  0  0  0
   -0.2050   15.3550   -0.5490 H   0  0  0  0  0  0  0  0  0  0  0  0
   -1.2100   13.2990    0.8170 H   0  0  0  0  0  0  0  0  0  0  0  0
    1.7400   14.2620   -1.4650 H   0  0  0  0  0  0  0  0  0  0  0  0
    1.6990   14.3000   -0.3710 C   0  0  1  0  0  0  0  0  0  0  0  0
    0.8090   12.3360    1.6280 H   0  0  0  0  0  0  0  0  0  0  0  0
    2.1460   16.6450   -0.2060 O   0  0  0  0  0  0  0  0  0  0  0  0
    3.7400   15.3080    0.6050 O   0  0  0  0  0  0  0  0  0  0  0  0
    2.8020   17.2780    0.1510 H   0  0  0  0  0  0  0  0  0  0  0  0
  1  5  1  0  0  0  0
  2  1  1  0  0  0  0
  3  2  2  0  0  0  0
  4  2  1  6  0  0  0
  4 10  5  0  0  0  0
  6  4  5  0  0  0  0
  6  7  5  0  0  0  0
  6 13  1  0  0  0  0
  7 12  1  0  0  0  0
  8  7  5  0  0  0  0
  8 11  1  6  0  0  0
  9  8  5  0  0  0  0
  9 15  1  0  0  0  0
 10  9  5  0  0  0  0
 10 14  1  0  0  0  0
 11 19  1  0  0  0  0
 16 11  2  0  0  0  0
 16 18  1  0  0  0  0
 17 16  1  1  0  0  0
 17 24  5  0  0  0  0
 20 17  5  0  0  0  0
 20 21  5  0  0  0  0
 20 27  1  0  0  0  0
 21 33  1  1  0  0  0
 22 21  5  0  0  0  0
 22 23  5  1  0  0  0
 22 25  1  0  0  0  0
 23 29  1  0  0  0  0
 24 23  5  0  0  0  0
 24 28  1  0  0  0  0
 25 36  1  0  0  0  0
 25 44  1  1  0  0  0
 26 30  1  0  0  0  0
 26 31  1  0  0  0  0
 26 32  1  0  0  0  0
 26 33  1  0  0  0  0
 34 25  1  0  0  0  0
 35 43  1  0  0  0  0
 35 40  1  0  0  0  0
 36 35  1  0  0  0  0
 36 41  1  0  0  0  0
 37 43  1  0  0  0  0
 37 46  2  0  0  0  0
 38 36  1  0  0  0  0
 39 35  1  0  0  0  0
 43 34  1  0  0  0  0
 43 42  1  6  0  0  0
 45 37  1  0  0  0  0
 47 45  1  0  0  0  0
M  END
