21

O          1.16700        0.31300       -0.01300
C         -0.00900        0.97500       -0.04000
O         -1.05600        0.34300       -0.08500
C          0.02300        2.47800       -0.01200
H          1.98200        0.84500        0.00500
C         -1.20100        3.06500        0.02700
C         -1.33000        4.40600        0.05300
C         -0.24400        5.20300        0.03100
C          0.98200        4.63200       -0.00600
C          1.11500        3.27900       -0.02300
C         -0.35800        6.63200        0.04200
F         -2.57100        4.93800        0.09900
H         -2.11600        2.47400        0.03600
Cl         2.74700        2.66000       -0.06200
O          2.10500        5.45700       -0.03300
C         -0.33900        7.83600        0.03400
C         -0.25200        9.27300        0.01400
H          2.93300        4.94700       -0.04900
O         -1.45300        9.88200        0.00600
O          0.79600        9.89200        0.00400
H         -1.24400       10.83800       -0.00700
