
 OpenBabel11042013053D

 21 21  0  0  1  0  0  0  0  0999 V2000
    1.1670    0.3130   -0.0130 O   0  0  0  0  0  0  0  0  0  0  0  0
   -0.0090    0.9750   -0.0400 C   0  0  0  0  0  0  0  0  0  0  0  0
   -1.0560    0.3430   -0.0850 O   0  0  0  0  0  0  0  0  0  0  0  0
    0.0230    2.4780   -0.0120 C   0  0  2  0  0  0  0  0  0  0  0  0
    1.9820    0.8450    0.0050 H   0  0  0  0  0  0  0  0  0  0  0  0
   -1.2010    3.0650    0.0270 C   0  0  0  0  0  0  0  0  0  0  0  0
   -1.3300    4.4060    0.0530 C   0  0  1  0  0  0  0  0  0  0  0  0
   -0.2440    5.2030    0.0310 C   0  0  1  0  0  0  0  0  0  0  0  0
    0.9820    4.6320   -0.0060 C   0  0  1  0  0  0  0  0  0  0  0  0
    1.1150    3.2790   -0.0230 C   0  0  2  0  0  0  0  0  0  0  0  0
   -0.3580    6.6320    0.0420 C   0  0  0  0  0  0  0  0  0  0  0  0
   -2.5710    4.9380    0.0990 F   0  0  0  0  0  0  0  0  0  0  0  0
   -2.1160    2.4740    0.0360 H   0  0  0  0  0  0  0  0  0  0  0  0
    2.7470    2.6600   -0.0620 Cl  0  0  0  0  0  0  0  0  0  0  0  0
    2.1050    5.4570   -0.0330 O   0  0  0  0  0  0  0  0  0  0  0  0
   -0.3390    7.8360    0.0340 C   0  0  0  0  0  0  0  0  0  0  0  0
   -0.2520    9.2730    0.0140 C   0  0  0  0  0  0  0  0  0  0  0  0
    2.9330    4.9470   -0.0490 H   0  0  0  0  0  0  0  0  0  0  0  0
   -1.4530    9.8820    0.0060 O   0  0  0  0  0  0  0  0  0  0  0  0
    0.7960    9.8920    0.0040 O   0  0  0  0  0  0  0  0  0  0  0  0
   -1.2440   10.8380   -0.0070 H   0  0  0  0  0  0  0  0  0  0  0  0
  1  5  1  0  0  0  0
  2  1  1  0  0  0  0
  3  2  2  0  0  0  0
  4  2  1  6  0  0  0
  4 10  5  0  0  0  0
  6  4  5  0  0  0  0
  6  7  5  0  0  0  0
  6 13  1  0  0  0  0
  7 12  1  6  0  0  0
  8  7  5  0  0  0  0
  8 11  1  6  0  0  0
  9  8  5  0  0  0  0
  9 15  1  6  0  0  0
 10  9  5  0  0  0  0
 10 14  1  6  0  0  0
 15 18  1  0  0  0  0
 16 11  3  0  0  0  0
 17 16  1  0  0  0  0
 17 20  2  0  0  0  0
 19 17  1  0  0  0  0
 21 19  1  0  0  0  0
M  END
