
 OpenBabel11042013053D

 28 28  0  0  1  0  0  0  0  0999 V2000
    1.2600    0.2480   -0.0470 O   0  0  0  0  0  0  0  0  0  0  0  0
    0.0570    0.8570   -0.0350 C   0  0  0  0  0  0  0  0  0  0  0  0
   -0.9570    0.1750   -0.0150 O   0  0  0  0  0  0  0  0  0  0  0  0
    0.1090    2.3500   -0.0400 C   0  0  1  0  0  0  0  0  0  0  0  0
    1.0340   -0.7060   -0.0740 H   0  0  0  0  0  0  0  0  0  0  0  0
   -1.0900    2.9750    0.0130 C   0  0  0  0  0  0  0  0  0  0  0  0
   -1.1910    4.3240    0.0220 C   0  0  2  0  0  0  0  0  0  0  0  0
   -0.0730    5.1010   -0.0510 C   0  0  2  0  0  0  0  0  0  0  0  0
    1.1210    4.4510   -0.0870 C   0  0  0  0  0  0  0  0  0  0  0  0
    1.2260    3.1080   -0.0630 C   0  0  1  0  0  0  0  0  0  0  0  0
    0.0330    6.5750   -0.0480 C   0  0  0  0  0  0  0  0  0  0  0  0
   -2.5120    4.8570    0.1290 N   0  0  0  0  0  0  0  0  0  0  0  0
   -1.9960    2.3730    0.0510 H   0  0  0  0  0  0  0  0  0  0  0  0
    2.5440    2.5640   -0.0460 N   0  0  0  0  0  0  0  0  0  0  0  0
    2.0440    5.0250   -0.1300 H   0  0  0  0  0  0  0  0  0  0  0  0
   -0.9050    7.5330   -0.0090 C   0  0  0  0  0  0  0  0  0  0  0  0
   -0.5520    8.9160   -0.0080 C   0  0  0  0  0  0  0  0  0  0  0  0
   -1.9620    7.3200    0.0350 H   0  0  0  0  0  0  0  0  0  0  0  0
    1.0630    6.9400   -0.0710 H   0  0  0  0  0  0  0  0  0  0  0  0
    3.2240    3.0980    0.4860 H   0  0  0  0  0  0  0  0  0  0  0  0
    2.5730    1.5730    0.2000 H   0  0  0  0  0  0  0  0  0  0  0  0
   -2.7220    5.5620   -0.5690 H   0  0  0  0  0  0  0  0  0  0  0  0
   -3.2630    4.1740    0.1550 H   0  0  0  0  0  0  0  0  0  0  0  0
   -0.3060   10.0910   -0.0020 C   0  0  0  0  0  0  0  0  0  0  0  0
   -0.0750   11.5080    0.0080 C   0  0  0  0  0  0  0  0  0  0  0  0
   -1.2100   12.2330    0.0200 O   0  0  0  0  0  0  0  0  0  0  0  0
    1.0310   12.0190    0.0070 O   0  0  0  0  0  0  0  0  0  0  0  0
   -0.9040   13.1600    0.0260 H   0  0  0  0  0  0  0  0  0  0  0  0
  1  5  1  0  0  0  0
  2  1  1  0  0  0  0
  3  2  2  0  0  0  0
  4  2  1  1  0  0  0
  4 10  5  0  0  0  0
  6  4  5  0  0  0  0
  6  7  5  0  0  0  0
  6 13  1  0  0  0  0
  7 12  1  1  0  0  0
  8  7  5  0  0  0  0
  8 11  1  1  0  0  0
  9  8  5  0  0  0  0
  9 15  1  0  0  0  0
 10  9  5  0  0  0  0
 10 14  1  1  0  0  0
 11 19  1  0  0  0  0
 12 22  1  0  0  0  0
 12 23  1  0  0  0  0
 14 20  1  0  0  0  0
 14 21  1  0  0  0  0
 16 11  2  0  0  0  0
 16 18  1  0  0  0  0
 17 16  1  0  0  0  0
 24 17  3  0  0  0  0
 25 24  1  0  0  0  0
 25 27  2  0  0  0  0
 26 25  1  0  0  0  0
 28 26  1  0  0  0  0
M  END
