
 OpenBabel11042013053D

 30 31  0  0  1  0  0  0  0  0999 V2000
    1.1840    0.5850   -0.1010 O   0  0  0  0  0  0  0  0  0  0  0  0
    0.0110    1.2560   -0.1480 C   0  0  0  0  0  0  0  0  0  0  0  0
   -1.0250    0.6140   -0.2370 O   0  0  0  0  0  0  0  0  0  0  0  0
    0.1010    2.7530   -0.0640 C   0  0  1  0  0  0  0  0  0  0  0  0
    1.9900    1.1290   -0.0150 H   0  0  0  0  0  0  0  0  0  0  0  0
   -1.0160    3.5090   -0.1590 C   0  0  2  0  0  0  0  0  0  0  0  0
   -0.9180    4.8510   -0.0490 C   0  0  0  0  0  0  0  0  0  0  0  0
    0.2510    5.5090    0.1830 C   0  0  2  0  0  0  0  0  0  0  0  0
    1.3720    4.7300    0.2660 C   0  0  2  0  0  0  0  0  0  0  0  0
    1.2750    3.3820    0.1340 C   0  0  1  0  0  0  0  0  0  0  0  0
    0.1990    7.0340    0.4400 C   0  0  1  0  0  0  0  0  0  0  0  0
   -1.8440    5.4100   -0.1220 H   0  0  0  0  0  0  0  0  0  0  0  0
   -2.2610    2.9440   -0.3370 O   0  0  0  0  0  0  0  0  0  0  0  0
    2.4070    2.6440    0.2420 F   0  0  0  0  0  0  0  0  0  0  0  0
    3.1020    5.3920    0.6450 Br  0  0  0  0  0  0  0  0  0  0  0  0
    1.2630    8.0150   -0.0560 C   0  0  0  0  0  0  0  0  0  0  0  0
    0.6620    9.3390    0.3890 C   0  0  2  0  0  0  0  0  0  0  0  0
   -0.7910    9.1640    0.1730 N   0  0  0  0  0  0  0  0  0  0  0  0
   -1.0010    7.7400   -0.0860 N   0  0  0  0  0  0  0  0  0  0  0  0
    1.2180   10.5780   -0.2890 C   0  0  0  0  0  0  0  0  0  0  0  0
   -1.8360    7.4290    0.4150 H   0  0  0  0  0  0  0  0  0  0  0  0
   -1.0880    9.7470   -0.6190 H   0  0  0  0  0  0  0  0  0  0  0  0
    2.2370    7.9090    0.4220 H   0  0  0  0  0  0  0  0  0  0  0  0
    0.8270    9.4760    1.4660 H   0  0  0  0  0  0  0  0  0  0  0  0
    1.4030    7.9650   -1.1440 H   0  0  0  0  0  0  0  0  0  0  0  0
    0.1580    7.1130    1.5380 H   0  0  0  0  0  0  0  0  0  0  0  0
   -3.0060    3.5570   -0.2230 H   0  0  0  0  0  0  0  0  0  0  0  0
    0.3360   11.6020   -0.3330 O   0  0  0  0  0  0  0  0  0  0  0  0
    2.3650   10.7420   -0.6720 O   0  0  0  0  0  0  0  0  0  0  0  0
    0.8600   12.3680   -0.6480 H   0  0  0  0  0  0  0  0  0  0  0  0
  1  5  1  0  0  0  0
  2  1  1  0  0  0  0
  3  2  2  0  0  0  0
  4  2  1  1  0  0  0
  4 10  5  0  0  0  0
  6  4  5  0  0  0  0
  6  7  5  0  0  0  0
  6 13  1  1  0  0  0
  7 12  1  0  0  0  0
  8  7  5  1  0  0  0
  8 11  1  0  0  0  0
  9  8  5  0  0  0  0
  9 15  1  1  0  0  0
 10  9  5  0  0  0  0
 10 14  1  1  0  0  0
 11 19  1  0  0  0  0
 11 26  1  1  0  0  0
 13 27  1  0  0  0  0
 16 11  1  0  0  0  0
 16 23  1  0  0  0  0
 16 25  1  0  0  0  0
 17 16  1  0  0  0  0
 17 24  1  1  0  0  0
 18 17  1  0  0  0  0
 19 18  1  0  0  0  0
 20 17  1  0  0  0  0
 20 29  2  0  0  0  0
 21 19  1  0  0  0  0
 22 18  1  0  0  0  0
 28 20  1  0  0  0  0
 30 28  1  0  0  0  0
M  END
