
 OpenBabel11042013033D

 28 29  0  0  1  0  0  0  0  0999 V2000
    1.4130   -0.1650   -0.0250 O   0  0  0  0  0  0  0  0  0  0  0  0
    0.2050    0.3680   -0.3370 C   0  0  0  0  0  0  0  0  0  0  0  0
   -0.7290   -0.3760   -0.5790 O   0  0  0  0  0  0  0  0  0  0  0  0
    0.1290    1.8680   -0.3110 C   0  0  1  0  0  0  0  0  0  0  0  0
    2.0950    0.4180    0.3450 H   0  0  0  0  0  0  0  0  0  0  0  0
   -1.0500    2.5310   -0.2160 C   0  0  2  0  0  0  0  0  0  0  0  0
   -1.0300    3.8770   -0.0810 C   0  0  0  0  0  0  0  0  0  0  0  0
    0.1080    4.6120   -0.0190 C   0  0  2  0  0  0  0  0  0  0  0  0
    1.2700    3.9380   -0.2080 C   0  0  2  0  0  0  0  0  0  0  0  0
    1.2750    2.6040   -0.3600 C   0  0  0  0  0  0  0  0  0  0  0  0
   -0.0840    6.0760    0.3330 C   0  0  1  0  0  0  0  0  0  0  0  0
   -1.9880    4.3970    0.0170 H   0  0  0  0  0  0  0  0  0  0  0  0
   -2.7680    1.7400   -0.2180 Br  0  0  0  0  0  0  0  0  0  0  0  0
    2.2340    2.1250   -0.5140 H   0  0  0  0  0  0  0  0  0  0  0  0
    2.8370    4.6950   -0.2030 Cl  0  0  0  0  0  0  0  0  0  0  0  0
    1.0230    7.1040    0.3980 C   0  0  0  0  0  0  0  0  0  0  0  0
    0.2280    8.2740    0.1770 N   0  0  0  0  0  0  0  0  0  0  0  0
   -0.8890    7.9850   -0.5600 N   0  0  0  0  0  0  0  0  0  0  0  0
   -1.0520    6.7380   -0.5840 N   0  0  0  0  0  0  0  0  0  0  0  0
    0.7780    9.5110    0.2220 N   0  0  0  0  0  0  0  0  0  0  0  0
    1.7260    7.0650   -0.4370 H   0  0  0  0  0  0  0  0  0  0  0  0
    1.5390    7.1360    1.3610 H   0  0  0  0  0  0  0  0  0  0  0  0
   -0.5630    6.0760    1.3270 H   0  0  0  0  0  0  0  0  0  0  0  0
    0.2750   10.2310   -0.6630 N   0  0  0  0  0  0  0  0  0  0  0  0
    0.3120   11.5470   -0.3370 C   0  0  0  0  0  0  0  0  0  0  0  0
   -0.9390   12.0580   -0.3970 O   0  0  0  0  0  0  0  0  0  0  0  0
    1.2600   12.2480   -0.0270 O   0  0  0  0  0  0  0  0  0  0  0  0
   -0.8140   12.9810   -0.1300 H   0  0  0  0  0  0  0  0  0  0  0  0
  1  5  1  0  0  0  0
  2  1  1  0  0  0  0
  3  2  2  0  0  0  0
  4  2  1  1  0  0  0
  4 10  5  0  0  0  0
  6  4  5  0  0  0  0
  6  7  5  0  0  0  0
  6 13  1  1  0  0  0
  7 12  1  0  0  0  0
  8  7  5  1  0  0  0
  8 11  1  0  0  0  0
  9  8  5  0  0  0  0
  9 15  1  1  0  0  0
 10  9  5  0  0  0  0
 10 14  1  0  0  0  0
 11 19  1  0  0  0  0
 11 23  1  1  0  0  0
 16 11  1  0  0  0  0
 16 21  1  0  0  0  0
 16 22  1  0  0  0  0
 17 16  1  0  0  0  0
 18 17  1  0  0  0  0
 19 18  2  0  0  0  0
 20 17  1  0  0  0  0
 24 20  2  0  0  0  0
 25 24  1  0  0  0  0
 25 27  2  0  0  0  0
 26 25  1  0  0  0  0
 28 26  1  0  0  0  0
M  END
