
 OpenBabel11042013053D

 51 54  0  0  1  0  0  0  0  0999 V2000
    1.4320   -0.4720    0.1620 O   0  0  0  0  0  0  0  0  0  0  0  0
    0.2150    0.1060    0.2240 C   0  0  0  0  0  0  0  0  0  0  0  0
   -0.7970   -0.5770    0.3040 O   0  0  0  0  0  0  0  0  0  0  0  0
    0.1960    1.6050    0.1450 C   0  0  2  0  0  0  0  0  0  0  0  0
    2.1920    0.1180    0.0490 H   0  0  0  0  0  0  0  0  0  0  0  0
   -1.0310    2.1690    0.1110 C   0  0  0  0  0  0  0  0  0  0  0  0
   -1.1690    3.5010   -0.0360 C   0  0  0  0  0  0  0  0  0  0  0  0
   -0.0900    4.3120   -0.1660 C   0  0  1  0  0  0  0  0  0  0  0  0
    1.1370    3.7470   -0.0750 C   0  0  0  0  0  0  0  0  0  0  0  0
    1.2780    2.4090    0.0670 C   0  0  0  0  0  0  0  0  0  0  0  0
   -0.2780    5.7850   -0.4700 C   0  0  2  0  0  0  0  0  0  0  0  0
   -2.1800    3.9080   -0.0790 H   0  0  0  0  0  0  0  0  0  0  0  0
   -1.9300    1.5600    0.1820 H   0  0  0  0  0  0  0  0  0  0  0  0
    2.2940    2.0360    0.1130 H   0  0  0  0  0  0  0  0  0  0  0  0
    2.0280    4.3540   -0.1670 H   0  0  0  0  0  0  0  0  0  0  0  0
    0.7780    6.8210   -0.0990 C   0  0  0  0  0  0  0  0  0  0  0  0
   -0.0830    7.9870   -0.0670 N   0  0  0  0  0  0  0  0  0  0  0  0
   -1.3470    7.5850    0.3430 N   0  0  0  0  0  0  0  0  0  0  0  0
   -1.4710    6.3460    0.2050 N   0  0  0  0  0  0  0  0  0  0  0  0
    0.3080    9.2930    0.4030 C   0  0  1  0  0  0  0  0  0  0  0  0
    1.5650    6.9330   -0.8480 H   0  0  0  0  0  0  0  0  0  0  0  0
    1.2000    6.6630    0.9000 H   0  0  0  0  0  0  0  0  0  0  0  0
   -0.4700    5.8590   -1.5500 H   0  0  0  0  0  0  0  0  0  0  0  0
    1.5080   10.0760   -0.1410 C   0  0  0  0  0  0  0  0  0  0  0  0
    1.1210   11.4850    0.3670 C   0  0  2  0  0  0  0  0  0  0  0  0
   -0.3610   11.5020    0.2310 N   0  0  0  0  0  0  0  0  0  0  0  0
   -0.7600   10.1710   -0.0510 N   0  0  0  0  0  0  0  0  0  0  0  0
    1.7210   12.7950   -0.1230 C   0  0  0  0  0  0  0  0  0  0  0  0
   -1.6360    9.8790    0.3840 H   0  0  0  0  0  0  0  0  0  0  0  0
   -0.6000   12.0760   -0.5860 H   0  0  0  0  0  0  0  0  0  0  0  0
    2.4510    9.7270    0.2930 H   0  0  0  0  0  0  0  0  0  0  0  0
    1.3450   11.4760    1.4450 H   0  0  0  0  0  0  0  0  0  0  0  0
    1.5910   10.0300   -1.2350 H   0  0  0  0  0  0  0  0  0  0  0  0
    0.3540    9.2470    1.5000 H   0  0  0  0  0  0  0  0  0  0  0  0
    1.0050   13.9270    0.0460 C   0  0  0  0  0  0  0  0  0  0  0  0
    1.2440   15.3450   -0.1380 C   0  0  1  0  0  0  0  0  0  0  0  0
    0.0210   13.7920    0.5020 H   0  0  0  0  0  0  0  0  0  0  0  0
    2.7420   12.8130   -0.4920 H   0  0  0  0  0  0  0  0  0  0  0  0
    0.1460   16.1380   -0.1770 C   0  0  0  0  0  0  0  0  0  0  0  0
    0.2420   17.4750   -0.1810 C   0  0  0  0  0  0  0  0  0  0  0  0
    1.4560   18.0590   -0.1400 C   0  0  2  0  0  0  0  0  0  0  0  0
    2.5630   17.2840   -0.1250 C   0  0  0  0  0  0  0  0  0  0  0  0
    2.4580   15.9360   -0.1190 C   0  0  0  0  0  0  0  0  0  0  0  0
    1.6000   19.5380   -0.0760 C   0  0  0  0  0  0  0  0  0  0  0  0
   -0.6710   18.0690   -0.1830 H   0  0  0  0  0  0  0  0  0  0  0  0
   -0.8550   15.7080   -0.1790 H   0  0  0  0  0  0  0  0  0  0  0  0
    3.3630   15.3380   -0.0610 H   0  0  0  0  0  0  0  0  0  0  0  0
    3.5500   17.7420   -0.0810 H   0  0  0  0  0  0  0  0  0  0  0  0
    0.4210   20.1910   -0.0500 O   0  0  0  0  0  0  0  0  0  0  0  0
    2.6500   20.1540   -0.0240 O   0  0  0  0  0  0  0  0  0  0  0  0
    0.6760   21.1340    0.0170 H   0  0  0  0  0  0  0  0  0  0  0  0
  1  5  1  0  0  0  0
  2  1  1  0  0  0  0
  3  2  2  0  0  0  0
  4  2  1  6  0  0  0
  4 10  5  0  0  0  0
  6  4  5  0  0  0  0
  6  7  5  0  0  0  0
  6 13  1  0  0  0  0
  7 12  1  0  0  0  0
  8  7  5  6  0  0  0
  8 11  1  0  0  0  0
  9  8  5  0  0  0  0
  9 15  1  0  0  0  0
 10  9  5  0  0  0  0
 10 14  1  0  0  0  0
 11 19  1  0  0  0  0
 11 23  1  6  0  0  0
 16 11  1  0  0  0  0
 16 21  1  0  0  0  0
 16 22  1  0  0  0  0
 17 16  1  0  0  0  0
 18 17  1  0  0  0  0
 19 18  2  0  0  0  0
 20 17  1  0  0  0  0
 20 27  1  0  0  0  0
 20 34  1  1  0  0  0
 24 20  1  0  0  0  0
 24 31  1  0  0  0  0
 24 33  1  0  0  0  0
 25 24  1  0  0  0  0
 25 32  1  1  0  0  0
 26 25  1  0  0  0  0
 27 26  1  0  0  0  0
 28 25  1  0  0  0  0
 28 38  1  0  0  0  0
 29 27  1  0  0  0  0
 30 26  1  0  0  0  0
 35 28  2  0  0  0  0
 35 37  1  0  0  0  0
 36 35  1  1  0  0  0
 36 43  5  0  0  0  0
 39 36  5  0  0  0  0
 39 40  5  0  0  0  0
 39 46  1  0  0  0  0
 40 45  1  0  0  0  0
 41 40  5  0  0  0  0
 41 44  1  1  0  0  0
 42 41  5  0  0  0  0
 42 48  1  0  0  0  0
 43 42  5  0  0  0  0
 43 47  1  0  0  0  0
 44 50  2  0  0  0  0
 49 44  1  0  0  0  0
 51 49  1  0  0  0  0
M  END
