23

O          1.27800        0.39200       -0.04300
C          0.09300        1.03500        0.04300
O         -0.94500        0.39200        0.15000
C          0.14100        2.53500       -0.01200
H          2.06900        0.96300       -0.09400
C         -0.99500        3.27100       -0.13000
C         -0.92400        4.61500       -0.23700
C          0.24800        5.27900       -0.12300
C          1.37300        4.54300        0.07200
C          1.30900        3.19500        0.09300
N          0.38500        6.64800       -0.19500
H         -1.83800        5.18500       -0.39400
N         -2.29200        2.69000       -0.12100
F          2.46600        2.51000        0.23900
O          2.59600        5.16000        0.30200
H          2.47100        6.09900        0.53500
N         -0.63200        7.34200        0.00600
C         -0.34700        8.68100       -0.00700
H         -2.35300        1.77000        0.32900
H         -3.10200        3.26700        0.07800
O         -1.47900        9.41400       -0.00900
O          0.73900        9.24700       -0.00600
H         -1.14700       10.32900       -0.00900
