
 OpenBabel11042013053D

 31 32  0  0  1  0  0  0  0  0999 V2000
    1.1180   -0.1980    0.1560 O   0  0  0  0  0  0  0  0  0  0  0  0
   -0.1020    0.3770    0.1980 C   0  0  0  0  0  0  0  0  0  0  0  0
   -1.1210   -0.3010    0.2150 O   0  0  0  0  0  0  0  0  0  0  0  0
   -0.1210    1.8670    0.1730 C   0  0  2  0  0  0  0  0  0  0  0  0
    1.8750    0.4180    0.1340 H   0  0  0  0  0  0  0  0  0  0  0  0
   -1.3210    2.4810    0.1280 C   0  0  0  0  0  0  0  0  0  0  0  0
   -1.3930    3.8230    0.0240 C   0  0  0  0  0  0  0  0  0  0  0  0
   -0.2760    4.5930   -0.0440 C   0  0  1  0  0  0  0  0  0  0  0  0
    0.9260    3.9710    0.0570 C   0  0  1  0  0  0  0  0  0  0  0  0
    0.9890    2.6280    0.1640 C   0  0  2  0  0  0  0  0  0  0  0  0
   -0.4280    6.0850   -0.3100 C   0  0  2  0  0  0  0  0  0  0  0  0
   -2.3810    4.2810   -0.0400 H   0  0  0  0  0  0  0  0  0  0  0  0
   -2.2440    1.9030    0.1460 H   0  0  0  0  0  0  0  0  0  0  0  0
    2.2120    2.0520    0.2200 F   0  0  0  0  0  0  0  0  0  0  0  0
    2.1070    4.6930    0.0040 O   0  0  0  0  0  0  0  0  0  0  0  0
    0.7180    7.0500   -0.0810 C   0  0  0  0  0  0  0  0  0  0  0  0
   -0.0510    8.2640    0.0930 N   0  0  0  0  0  0  0  0  0  0  0  0
   -1.3020    7.9760    0.5790 N   0  0  0  0  0  0  0  0  0  0  0  0
   -1.4910    6.7300    0.4960 N   0  0  0  0  0  0  0  0  0  0  0  0
    0.4480    9.5460   -0.0150 C   0  0  0  0  0  0  0  0  0  0  0  0
    1.2780    6.8500    0.8390 H   0  0  0  0  0  0  0  0  0  0  0  0
    1.3960    7.0950   -0.9390 H   0  0  0  0  0  0  0  0  0  0  0  0
   -0.7410    6.1720   -1.3620 H   0  0  0  0  0  0  0  0  0  0  0  0
    2.8870    4.1240    0.1460 H   0  0  0  0  0  0  0  0  0  0  0  0
   -0.2580   10.6810    0.0440 C   0  0  0  0  0  0  0  0  0  0  0  0
    0.3940   11.9880   -0.0570 C   0  0  0  0  0  0  0  0  0  0  0  0
   -1.3340   10.6710    0.1690 H   0  0  0  0  0  0  0  0  0  0  0  0
    1.5240    9.5730   -0.1720 H   0  0  0  0  0  0  0  0  0  0  0  0
   -0.5330   12.9600   -0.0100 O   0  0  0  0  0  0  0  0  0  0  0  0
    1.5820   12.2200   -0.1630 O   0  0  0  0  0  0  0  0  0  0  0  0
   -0.0190   13.7930   -0.0640 H   0  0  0  0  0  0  0  0  0  0  0  0
  1  5  1  0  0  0  0
  2  1  1  0  0  0  0
  3  2  2  0  0  0  0
  4  2  1  6  0  0  0
  4 10  5  0  0  0  0
  6  4  5  0  0  0  0
  6  7  5  0  0  0  0
  6 13  1  0  0  0  0
  7 12  1  0  0  0  0
  8  7  5  6  0  0  0
  8 11  1  0  0  0  0
  9  8  5  0  0  0  0
  9 15  1  6  0  0  0
 10  9  5  0  0  0  0
 10 14  1  6  0  0  0
 11 19  1  0  0  0  0
 11 23  1  6  0  0  0
 15 24  1  0  0  0  0
 16 11  1  0  0  0  0
 16 21  1  0  0  0  0
 16 22  1  0  0  0  0
 17 16  1  0  0  0  0
 18 17  1  0  0  0  0
 19 18  2  0  0  0  0
 20 17  1  0  0  0  0
 20 28  1  0  0  0  0
 25 20  2  0  0  0  0
 25 27  1  0  0  0  0
 26 25  1  0  0  0  0
 26 30  2  0  0  0  0
 29 26  1  0  0  0  0
 31 29  1  0  0  0  0
M  END
