
 OpenBabel11042013053D

 44 45  0  0  1  0  0  0  0  0999 V2000
    0.8210    0.9690   -0.3310 O   0  0  0  0  0  0  0  0  0  0  0  0
    0.0870    1.6500   -1.2370 C   0  0  0  0  0  0  0  0  0  0  0  0
   -0.5210    1.0960   -2.1390 O   0  0  0  0  0  0  0  0  0  0  0  0
   -0.0580    3.1010   -0.9060 C   0  0  1  0  0  0  0  0  0  0  0  0
    1.1950    1.5230    0.3750 H   0  0  0  0  0  0  0  0  0  0  0  0
   -1.3530    3.4600   -0.8040 C   0  0  0  0  0  0  0  0  0  0  0  0
   -1.7290    4.6980   -0.4190 C   0  0  2  0  0  0  0  0  0  0  0  0
   -0.7820    5.6690   -0.2450 C   0  0  2  0  0  0  0  0  0  0  0  0
    0.4750    5.1670   -0.0270 C   0  0  2  0  0  0  0  0  0  0  0  0
    0.9010    3.9520   -0.4770 C   0  0  1  0  0  0  0  0  0  0  0  0
   -1.1550    7.1570   -0.1690 C   0  0  2  0  0  0  0  0  0  0  0  0
   -3.1730    4.8640    0.0810 C   0  0  0  0  0  0  0  0  0  0  0  0
   -2.1180    2.7090   -0.9990 H   0  0  0  0  0  0  0  0  0  0  0  0
    2.4080    3.6530   -0.3530 C   0  0  0  0  0  0  0  0  0  0  0  0
    0.7750    4.8870    2.2190 C   0  0  0  0  0  0  0  0  0  0  0  0
   -3.6880    3.6800    0.9000 C   0  0  0  0  0  0  0  0  0  0  0  0
   -2.9400    3.3460    1.6290 H   0  0  0  0  0  0  0  0  0  0  0  0
   -3.9510    2.8380    0.2560 H   0  0  0  0  0  0  0  0  0  0  0  0
   -4.5860    3.9690    1.4530 H   0  0  0  0  0  0  0  0  0  0  0  0
   -3.2100    5.7000    0.7910 H   0  0  0  0  0  0  0  0  0  0  0  0
   -3.8660    5.0720   -0.7420 H   0  0  0  0  0  0  0  0  0  0  0  0
    3.1200    2.6710   -1.2870 C   0  0  0  0  0  0  0  0  0  0  0  0
    3.7690    2.0140   -0.6920 H   0  0  0  0  0  0  0  0  0  0  0  0
    2.4650    2.0390   -1.8840 H   0  0  0  0  0  0  0  0  0  0  0  0
    3.7740    3.2040   -1.9840 H   0  0  0  0  0  0  0  0  0  0  0  0
    2.9550    4.6010   -0.4600 H   0  0  0  0  0  0  0  0  0  0  0  0
    2.6030    3.3170    0.6720 H   0  0  0  0  0  0  0  0  0  0  0  0
   -0.2470    4.4790    2.1250 H   0  0  0  0  0  0  0  0  0  0  0  0
    0.7980    5.4840    3.1300 H   0  0  0  0  0  0  0  0  0  0  0  0
    1.4530    4.0350    2.3400 H   0  0  0  0  0  0  0  0  0  0  0  0
    1.1860    5.6990    1.0770 O   0  0  0  0  0  0  0  0  0  0  0  0
   -2.3400    7.5980   -0.6810 C   0  0  0  0  0  0  0  0  0  0  0  0
   -2.7490    8.8750   -0.6370 C   0  0  0  0  0  0  0  0  0  0  0  0
   -1.9360    9.8230   -0.1410 C   0  0  1  0  0  0  0  0  0  0  0  0
   -0.7000    9.4620    0.2560 C   0  0  0  0  0  0  0  0  0  0  0  0
   -0.3220    8.1600    0.2410 C   0  0  0  0  0  0  0  0  0  0  0  0
   -2.3800   11.2360   -0.0650 C   0  0  0  0  0  0  0  0  0  0  0  0
   -3.7390    9.1250   -1.0160 H   0  0  0  0  0  0  0  0  0  0  0  0
   -3.0300    6.9230   -1.1680 H   0  0  0  0  0  0  0  0  0  0  0  0
    0.6970    7.9450    0.5570 H   0  0  0  0  0  0  0  0  0  0  0  0
    0.0010   10.2250    0.5940 H   0  0  0  0  0  0  0  0  0  0  0  0
   -3.7190   11.3810   -0.2460 O   0  0  0  0  0  0  0  0  0  0  0  0
   -1.6930   12.2080    0.1700 O   0  0  0  0  0  0  0  0  0  0  0  0
   -3.8880   12.3350   -0.1360 H   0  0  0  0  0  0  0  0  0  0  0  0
  1  5  1  0  0  0  0
  2  1  1  0  0  0  0
  3  2  2  0  0  0  0
  4  2  1  1  0  0  0
  4 10  5  0  0  0  0
  6  4  5  0  0  0  0
  6  7  5  0  0  0  0
  6 13  1  0  0  0  0
  7 12  1  1  0  0  0
  8  7  5  0  0  0  0
  8 11  1  1  0  0  0
  9  8  5  0  0  0  0
  9 31  1  1  0  0  0
 10  9  5  0  0  0  0
 10 14  1  1  0  0  0
 11 32  5  6  0  0  0
 11 36  5  0  0  0  0
 12 20  1  0  0  0  0
 12 21  1  0  0  0  0
 14 26  1  0  0  0  0
 14 27  1  0  0  0  0
 15 28  1  0  0  0  0
 15 29  1  0  0  0  0
 15 30  1  0  0  0  0
 15 31  1  0  0  0  0
 16 17  1  0  0  0  0
 16 18  1  0  0  0  0
 16 19  1  0  0  0  0
 16 12  1  0  0  0  0
 22 23  1  0  0  0  0
 22 24  1  0  0  0  0
 22 25  1  0  0  0  0
 22 14  1  0  0  0  0
 32 33  5  0  0  0  0
 32 39  1  0  0  0  0
 33 38  1  0  0  0  0
 34 33  5  0  0  0  0
 34 37  1  6  0  0  0
 35 34  5  0  0  0  0
 35 41  1  0  0  0  0
 36 35  5  0  0  0  0
 36 40  1  0  0  0  0
 37 43  2  0  0  0  0
 42 37  1  0  0  0  0
 44 42  1  0  0  0  0
M  END
