
 OpenBabel01202116503D

 35 36  0  0  1  0  0  0  0  0999 V2000
    1.6960   -0.1320    0.0140 O   0  0  0  0  0  0  0  0  0  0  0  0
    0.6510    0.6560   -0.0500 C   0  0  0  0  0  0  0  0  0  0  0  0
   -0.4210    0.0820    0.0010 O   0  0  0  0  0  0  0  0  0  0  0  0
    0.6270    2.0900   -0.1470 C   0  0  1  0  0  0  0  0  0  0  0  0
    2.5030    0.4170    0.0000 H   0  0  0  0  0  0  0  0  0  0  0  0
   -0.5520    2.7370   -0.0720 C   0  0  0  0  0  0  0  0  0  0  0  0
   -0.6240    4.0670   -0.1240 C   0  0  0  0  0  0  0  0  0  0  0  0
    0.4760    4.8110   -0.2730 C   0  0  2  0  0  0  0  0  0  0  0  0
    1.6420    4.1720   -0.3690 C   0  0  0  0  0  0  0  0  0  0  0  0
    1.7390    2.8420   -0.2990 C   0  0  1  0  0  0  0  0  0  0  0  0
    0.4380    6.1050   -0.2810 N   0  0  0  0  0  0  0  0  0  0  0  0
   -1.5970    4.5440   -0.0410 H   0  0  0  0  0  0  0  0  0  0  0  0
   -1.4870    2.1940    0.0510 H   0  0  0  0  0  0  0  0  0  0  0  0
    3.3470    2.2110   -0.4050 Cl  0  0  0  0  0  0  0  0  0  0  0  0
    2.5500    4.7610   -0.4760 H   0  0  0  0  0  0  0  0  0  0  0  0
   -0.3280    7.1070   -0.0120 N   0  0  0  0  0  0  0  0  0  0  0  0
    0.0570    8.4560   -0.3470 C   0  0  0  0  0  0  0  0  0  0  0  0
    0.2160    9.3820    0.6350 C   0  0  0  0  0  0  0  0  0  0  0  0
   -0.3970   10.7710    0.5750 C   0  0  1  0  0  0  0  0  0  0  0  0
    0.4940    9.1310    1.6700 H   0  0  0  0  0  0  0  0  0  0  0  0
    0.8390    8.0820    0.3250 H   0  0  0  0  0  0  0  0  0  0  0  0
    0.4160   11.7690   -0.0960 O   0  0  0  0  0  0  0  0  0  0  0  0
   -1.8890   12.3430   -0.3610 C   0  0  0  0  0  0  0  0  0  0  0  0
   -1.7410   10.8410   -0.1560 C   0  0  0  0  0  0  0  0  0  0  0  0
   -0.1800   14.2200   -0.1000 C   0  0  0  0  0  0  0  0  0  0  0  0
   -2.5570   10.4190    0.4350 H   0  0  0  0  0  0  0  0  0  0  0  0
   -2.2650   12.7960    0.5610 H   0  0  0  0  0  0  0  0  0  0  0  0
   -2.5710   12.5830   -1.1790 H   0  0  0  0  0  0  0  0  0  0  0  0
   -1.6910   10.3380   -1.1250 H   0  0  0  0  0  0  0  0  0  0  0  0
   -0.2820   12.8540   -1.7250 H   0  0  0  0  0  0  0  0  0  0  0  0
   -0.4480   12.8180   -0.6450 C   0  0  1  0  0  0  0  0  0  0  0  0
   -0.5490   11.1220    1.6000 H   0  0  0  0  0  0  0  0  0  0  0  0
   -1.1190   15.0860   -0.4040 O   0  0  0  0  0  0  0  0  0  0  0  0
    0.8040   14.5310    0.5380 O   0  0  0  0  0  0  0  0  0  0  0  0
   -0.8990   15.9490    0.0000 H   0  0  0  0  0  0  0  0  0  0  0  0
  1  5  1  0  0  0  0
  2  1  1  0  0  0  0
  3  2  2  0  0  0  0
  4  2  1  1  0  0  0
  4 10  5  0  0  0  0
  6  4  5  0  0  0  0
  6  7  5  0  0  0  0
  6 13  1  0  0  0  0
  7 12  1  0  0  0  0
  8  7  5  0  0  0  0
  8 11  1  1  0  0  0
  9  8  5  0  0  0  0
  9 15  1  0  0  0  0
 10  9  5  0  0  0  0
 10 14  1  1  0  0  0
 16 11  2  0  0  0  0
 17 16  1  0  0  0  0
 17 21  1  0  0  0  0
 18 17  2  3  0  0  0
 18 20  1  0  0  0  0
 19 18  1  0  0  0  0
 19 24  1  0  0  0  0
 19 32  1  1  0  0  0
 22 19  1  0  0  0  0
 23 31  1  0  0  0  0
 23 28  1  0  0  0  0
 24 23  1  0  0  0  0
 24 29  1  0  0  0  0
 25 31  1  0  0  0  0
 25 34  2  0  0  0  0
 26 24  1  0  0  0  0
 27 23  1  0  0  0  0
 31 22  1  0  0  0  0
 31 30  1  6  0  0  0
 33 25  1  0  0  0  0
 35 33  1  0  0  0  0
M  END
