50

O          1.23000       -0.92000       -0.02600
C          0.07800       -0.23600        0.13900
O         -0.98800       -0.81200        0.29900
C          0.20500        1.25500        0.08000
H          2.00400       -0.40100       -0.30300
C         -0.91700        1.95100       -0.17000
C         -0.87900        3.29400       -0.24500
C          0.25900        4.02500       -0.04500
C          1.38500        3.29700        0.25600
C          1.34200        1.93900        0.29600
C          0.15400        5.53600       -0.14100
H         -1.83000        3.76600       -0.47000
H         -1.86800        1.43800       -0.31300
H          2.25400        1.40300        0.54400
Br         3.09200        4.00100        0.70700
C         -1.02200        6.17600        0.09300
C         -1.15100        7.51300        0.02000
C         -0.09100        8.32400       -0.25400
C          1.07800        7.70500       -0.51200
C          1.18200        6.35500       -0.48400
C         -0.27800        9.84100       -0.24500
H         -2.13300        7.92900        0.19400
H         -1.92600        5.63700        0.35800
H          2.15400        5.96600       -0.74600
H          1.96300        8.28500       -0.74200
C          0.92900       10.78300       -0.09500
C          0.35500       12.06700        0.55300
N         -1.03400       11.69700        0.91000
N         -1.08100       10.27500        0.90800
C          0.42200       13.36100       -0.32600
H         -2.03700        9.92500        0.84400
H         -1.68400       12.07200        0.21600
H          1.67300       10.34700        0.58600
H          0.91500       12.25600        1.47900
H          1.42000       10.96900       -1.05600
H         -0.80200       10.11100       -1.17500
O          1.56100       14.18900        0.02400
C         -0.27000       15.65300       -0.22400
C         -0.80500       14.26100       -0.15500
C          1.95300       16.70500       -0.03200
H         -1.56900       14.06200       -0.91200
H         -0.21200       15.98800       -1.26600
H         -0.89800       16.36400        0.32400
H         -1.26700       14.14100        0.83200
H          1.05500       15.51500        1.48700
C          1.10600       15.50400        0.39100
H          0.53900       13.09900       -1.38400
O          1.32800       17.88100        0.24000
O          3.05500       16.70400       -0.55600
H          1.92600       18.57200       -0.11300
