38

O          1.58800       -0.35700        0.15700
C          0.36400        0.21400        0.17800
O         -0.63000       -0.47300        0.35800
C          0.34200        1.69200       -0.02600
H          2.34100        0.20600       -0.07600
C         -0.87500        2.27300       -0.12900
C         -0.99200        3.59800       -0.29000
C          0.11100        4.35900       -0.35200
C          1.33300        3.80200       -0.25900
C          1.44900        2.47500       -0.08800
C         -0.03500        5.75300       -0.37600
H         -1.98400        4.04500       -0.34200
F         -2.02200        1.56700       -0.03800
H          2.45800        2.10000        0.02100
H          2.22300        4.43300       -0.28600
C         -0.25900        6.89400       -0.11400
C         -0.58200        8.19300        0.41000
C          0.54900        9.16500        0.25300
N         -0.16200       10.26200       -0.33400
N         -1.42400        9.91600       -0.73500
N         -1.66400        8.73100       -0.41900
C          0.17000       11.58800       -0.20400
H          0.97000        9.43600        1.22700
H          1.34700        8.83300       -0.42000
H         -0.92200        8.11900        1.44800
C         -0.82800       12.49100       -0.12700
C         -0.57100       13.79800       -0.00200
C          0.70700       14.22200        0.02100
C          1.72300       13.33400       -0.03700
C          1.45100       12.01300       -0.13400
C          0.98500       15.67800        0.08300
H         -1.41100       14.48100        0.06800
H         -1.86900       12.17900       -0.14200
H          2.27900       11.31500       -0.19500
H          2.75600       13.67200       -0.01400
O         -0.12700       16.42800       -0.04700
O          2.08300       16.19700        0.20400
H          0.19500       17.35000       -0.03900
