44

O          1.69200       -0.19500        0.40400
C          0.60100        0.25700       -0.25200
O         -0.15100       -0.49200       -0.85200
C          0.44300        1.75300       -0.18900
H          2.18000        0.48800        0.89700
C         -0.72900        2.37700        0.13100
C         -0.72900        3.74200        0.15800
C          0.32100        4.47100       -0.30800
C          1.46500        3.81100       -0.60300
C          1.53500        2.47300       -0.51700
C          0.24000        5.96200       -0.68900
O         -1.83200        4.42400        0.63800
C         -2.01700        1.55700        0.33800
H          2.46800        1.98600       -0.79600
H          2.33800        4.35400       -0.95800
C          1.07900        7.01900        0.00600
N          0.21700        8.18100       -0.19100
N         -1.08200        7.76600       -0.33700
N         -1.11800        6.54300       -0.60200
C          0.43400        9.43800        0.49500
H          1.20500        6.83500        1.07700
H          2.04600        7.18400       -0.47700
H          0.48400        5.99700       -1.76100
H         -2.22400        3.99000        1.41200
C          1.59900       10.28800        0.02500
C          1.21400       11.67300        0.55000
N         -0.26300       11.63300        0.72700
N         -0.66600       10.35500        0.19800
C          1.63100       12.81800       -0.36500
H         -1.52400        9.97900        0.60800
H         -0.67200       12.40800        0.18400
H          2.55300        9.94600        0.43800
H          1.66100       11.85800        1.53300
H          1.68800       10.28400       -1.07000
H          0.48900        9.23600        1.57200
C         -3.36800        2.21400       -0.00100
H         -3.75600        2.80100        0.83700
H         -3.30200        2.85400       -0.88800
H         -4.12100        1.44600       -0.21000
H         -2.05200        1.15600        1.35600
H         -2.00100        0.70500       -0.34400
O          0.67900       13.76900       -0.51500
O          2.72800       12.96100       -0.88200
H          1.10500       14.46500       -1.05700
