29

O          1.95600        0.38400       -0.39200
C          0.83400        0.91200        0.14200
O         -0.06500        0.22700        0.60300
C          0.79600        2.40300        0.10900
H          2.54600        1.03200       -0.81700
C         -0.31200        3.06600       -0.30800
C         -0.35100        4.43200       -0.20400
C          0.74500        5.12600        0.22500
C          1.84400        4.41700        0.58400
C          1.86800        3.07700        0.55800
C          0.86200        6.59600        0.28000
C         -2.65100        4.81300        0.23200
C         -1.45900        2.30800       -0.95100
H          2.76400        2.57000        0.90500
F          2.96700        5.04700        0.99900
H         -3.41100        4.34900       -0.40300
H         -2.43100        4.15400        1.08000
H         -3.06500        5.74600        0.62400
O         -1.50600        5.11800       -0.57800
C         -0.10700        7.52300        0.22500
C          0.22900        8.95400        0.25400
H         -1.15800        7.29500        0.14100
H          1.88700        6.96600        0.37200
H         -2.17400        1.96600       -0.19700
H         -1.10500        1.44300       -1.52300
H         -1.98700        2.92300       -1.68900
O         -0.88600        9.68600        0.10000
O          1.32700        9.45800        0.38200
H         -0.56800       10.61300        0.10700
