26

O          1.53100        0.52100        0.62800
C          0.43600        1.16000        1.10000
O         -0.48700        0.57200        1.63800
C          0.45700        2.62600        0.85400
H          2.24900        1.10300        0.31500
C         -0.54400        3.13500        0.08900
C         -0.53500        4.46800       -0.20000
C          0.38700        5.25800        0.38400
C          1.36400        4.74700        1.14500
C          1.42800        3.41600        1.37700
C          0.36200        6.71000        0.17200
C         -0.97800        4.81300       -2.43300
C         -2.87500        2.74900       -0.27500
Br         2.86100        2.75800        2.41600
F          2.30000        5.56900        1.67200
H         -3.00100        3.47900        0.53400
H         -3.51600        1.89100       -0.04900
H         -3.21300        3.17400       -1.22500
O         -1.52700        2.28200       -0.41200
H         -0.03500        5.34800       -2.59200
H         -0.84200        3.74800       -2.65300
H         -1.72500        5.21200       -3.12200
O         -1.45000        5.01500       -1.09500
O         -0.72800        7.27000        0.72700
O          1.20500        7.36600       -0.41300
H         -0.66200        8.22200        0.50600
