48

O          1.35200       -0.84300        0.13000
C          0.12700       -0.28900        0.24300
O         -0.87700       -0.98900        0.29500
C          0.08700        1.19800        0.21100
H          2.09900       -0.23600        0.01100
C         -1.14500        1.76700        0.16500
C         -1.28300        3.09100       -0.00300
C         -0.19300        3.88000       -0.14600
C          1.02700        3.31500       -0.01100
C          1.17100        1.99900        0.18400
C         -0.34800        5.33200       -0.49100
H         -2.28300        3.51800       -0.06600
H         -2.04700        1.16000        0.22600
H          2.18700        1.63500        0.27100
H          1.94400        3.89600       -0.08100
C          0.84500        6.18300       -0.14400
N          0.21300        7.30900        0.46400
N         -1.13000        7.12900        0.64100
N         -1.45100        5.99200        0.22400
C          0.79900        8.53800        0.43600
H          1.51900        5.77700        0.61100
H          1.42600        6.42300       -1.04500
H         -0.55500        5.40900       -1.56900
C          0.13500        9.66500        0.66600
C          0.32200       10.69200       -0.37900
H         -0.81900        9.64400        1.19100
H          1.73900        8.55000       -0.11300
C          1.31700       11.76300       -0.06300
N          0.51700       12.90600       -0.37400
N         -0.79500       12.60400       -0.58700
N         -0.96200       11.37300       -0.57100
C          0.86500       14.20500       -0.13900
H          2.20300       11.69400       -0.69900
H          1.61100       11.79400        0.99200
H          0.56500       10.22300       -1.34300
C         -0.12600       15.08000        0.14600
C          0.12600       16.37300        0.33900
C          1.38700       16.82300        0.21400
C          2.40000       15.96900       -0.02500
C          2.14000       14.65300       -0.19200
C          1.61400       18.28500        0.29500
H         -0.71200       17.02400        0.56000
H         -1.15700       14.74400        0.23800
H          2.96000       13.98200       -0.42000
H          3.42300       16.32800       -0.11600
O          0.48800       18.98700        0.10400
O          2.69300       18.83100        0.42600
H          0.77300       19.92200        0.08900
