
 OpenBabel11042013053D

 52 55  0  0  1  0  0  0  0  0999 V2000
    1.1140    0.2250   -0.0240 O   0  0  0  0  0  0  0  0  0  0  0  0
   -0.0440    0.9230   -0.0440 C   0  0  0  0  0  0  0  0  0  0  0  0
   -1.1190    0.3430    0.0010 O   0  0  0  0  0  0  0  0  0  0  0  0
    0.0820    2.4150   -0.0770 C   0  0  1  0  0  0  0  0  0  0  0  0
    1.9390    0.7300   -0.0550 H   0  0  0  0  0  0  0  0  0  0  0  0
   -1.0670    3.1330   -0.0780 C   0  0  0  0  0  0  0  0  0  0  0  0
   -1.0380    4.4810   -0.0100 C   0  0  0  0  0  0  0  0  0  0  0  0
    0.1240    5.1630    0.0690 C   0  0  2  0  0  0  0  0  0  0  0  0
    1.2650    4.4360    0.0190 C   0  0  0  0  0  0  0  0  0  0  0  0
    1.2530    3.0910   -0.0430 C   0  0  0  0  0  0  0  0  0  0  0  0
    0.1600    6.6760    0.3000 C   0  0  1  0  0  0  0  0  0  0  0  0
   -1.9970    5.0030    0.0100 H   0  0  0  0  0  0  0  0  0  0  0  0
   -2.0250    2.6220   -0.1040 H   0  0  0  0  0  0  0  0  0  0  0  0
    2.2240    2.6070   -0.0590 H   0  0  0  0  0  0  0  0  0  0  0  0
    2.2340    4.9260    0.0750 H   0  0  0  0  0  0  0  0  0  0  0  0
    1.4600    7.4410   -0.0020 C   0  0  0  0  0  0  0  0  0  0  0  0
    1.1250    8.8650   -0.5610 C   0  0  1  0  0  0  0  0  0  0  0  0
   -0.2560    8.8240   -0.0830 N   0  0  0  0  0  0  0  0  0  0  0  0
   -0.7710    7.5180   -0.4320 N   0  0  0  0  0  0  0  0  0  0  0  0
    1.3330   10.3320   -0.2690 C   0  0  0  0  0  0  0  0  0  0  0  0
   -1.7160    7.3880   -0.0640 H   0  0  0  0  0  0  0  0  0  0  0  0
   -0.7980    9.5740   -0.5200 H   0  0  0  0  0  0  0  0  0  0  0  0
    2.0740    7.4380    0.9120 H   0  0  0  0  0  0  0  0  0  0  0  0
    2.1940    8.9640   -0.2490 H   0  0  0  0  0  0  0  0  0  0  0  0
    2.0140    6.9290   -0.8030 H   0  0  0  0  0  0  0  0  0  0  0  0
   -0.0540    6.7970    1.3740 H   0  0  0  0  0  0  0  0  0  0  0  0
    1.3880   11.5320   -0.1860 C   0  0  0  0  0  0  0  0  0  0  0  0
    1.3300   12.9660   -0.1380 C   0  0  1  0  0  0  0  0  0  0  0  0
    0.1210   13.5690   -0.0570 C   0  0  0  0  0  0  0  0  0  0  0  0
    0.0390   14.9050    0.0840 C   0  0  0  0  0  0  0  0  0  0  0  0
    1.1530   15.6900    0.1430 C   0  0  2  0  0  0  0  0  0  0  0  0
    2.3490   15.0710   -0.0060 C   0  0  0  0  0  0  0  0  0  0  0  0
    2.4340   13.7310   -0.1280 C   0  0  0  0  0  0  0  0  0  0  0  0
    1.0330   17.1940    0.4690 C   0  0  1  0  0  0  0  0  0  0  0  0
   -0.9570   15.3230    0.1540 H   0  0  0  0  0  0  0  0  0  0  0  0
   -0.7950   12.9810   -0.0700 H   0  0  0  0  0  0  0  0  0  0  0  0
    3.4150   13.2590   -0.2010 H   0  0  0  0  0  0  0  0  0  0  0  0
    3.2650   15.6510    0.0130 H   0  0  0  0  0  0  0  0  0  0  0  0
    2.0490   18.1030   -0.0250 O   0  0  0  0  0  0  0  0  0  0  0  0
   -0.0460   19.2240   -0.1230 C   0  0  0  0  0  0  0  0  0  0  0  0
   -0.3070   17.7710    0.0590 C   0  0  0  0  0  0  0  0  0  0  0  0
    1.8680   20.8010    0.0760 C   0  0  0  0  0  0  0  0  0  0  0  0
   -1.0590   17.5940    0.8360 H   0  0  0  0  0  0  0  0  0  0  0  0
   -0.3540   19.7470    0.7900 H   0  0  0  0  0  0  0  0  0  0  0  0
   -0.6180   19.6410   -0.9570 H   0  0  0  0  0  0  0  0  0  0  0  0
   -0.6830   17.3580   -0.8820 H   0  0  0  0  0  0  0  0  0  0  0  0
    1.6260   19.4210   -1.4690 H   0  0  0  0  0  0  0  0  0  0  0  0
    1.4470   19.3570   -0.3910 C   0  0  1  0  0  0  0  0  0  0  0  0
    1.1300   17.2530    1.5600 H   0  0  0  0  0  0  0  0  0  0  0  0
    0.8120   21.6660   -0.0070 O   0  0  0  0  0  0  0  0  0  0  0  0
    2.9710   21.2190    0.3780 O   0  0  0  0  0  0  0  0  0  0  0  0
    1.1470   22.5700    0.1620 H   0  0  0  0  0  0  0  0  0  0  0  0
  1  5  1  0  0  0  0
  2  1  1  0  0  0  0
  3  2  2  0  0  0  0
  4  2  1  1  0  0  0
  4 10  5  0  0  0  0
  6  4  5  0  0  0  0
  6  7  5  0  0  0  0
  6 13  1  0  0  0  0
  7 12  1  0  0  0  0
  8  7  5  1  0  0  0
  8 11  1  0  0  0  0
  9  8  5  0  0  0  0
  9 15  1  0  0  0  0
 10  9  5  0  0  0  0
 10 14  1  0  0  0  0
 11 19  1  0  0  0  0
 11 26  1  1  0  0  0
 16 11  1  0  0  0  0
 16 23  1  0  0  0  0
 16 25  1  0  0  0  0
 17 16  1  0  0  0  0
 17 24  1  6  0  0  0
 18 17  1  0  0  0  0
 19 18  1  0  0  0  0
 20 17  1  0  0  0  0
 21 19  1  0  0  0  0
 22 18  1  0  0  0  0
 27 20  3  0  0  0  0
 28 27  1  1  0  0  0
 28 33  5  0  0  0  0
 29 28  5  0  0  0  0
 29 30  5  0  0  0  0
 29 36  1  0  0  0  0
 30 35  1  0  0  0  0
 31 30  5  1  0  0  0
 31 34  1  0  0  0  0
 32 31  5  0  0  0  0
 32 38  1  0  0  0  0
 33 32  5  0  0  0  0
 33 37  1  0  0  0  0
 34 41  1  0  0  0  0
 34 49  1  1  0  0  0
 39 34  1  0  0  0  0
 40 48  1  0  0  0  0
 40 45  1  0  0  0  0
 41 40  1  0  0  0  0
 41 46  1  0  0  0  0
 42 48  1  0  0  0  0
 42 51  2  0  0  0  0
 43 41  1  0  0  0  0
 44 40  1  0  0  0  0
 48 39  1  0  0  0  0
 48 47  1  6  0  0  0
 50 42  1  0  0  0  0
 52 50  1  0  0  0  0
M  END
