52

O          1.11400        0.22500       -0.02400
C         -0.04400        0.92300       -0.04400
O         -1.11900        0.34300        0.00100
C          0.08200        2.41500       -0.07700
H          1.93900        0.73000       -0.05500
C         -1.06700        3.13300       -0.07800
C         -1.03800        4.48100       -0.01000
C          0.12400        5.16300        0.06900
C          1.26500        4.43600        0.01900
C          1.25300        3.09100       -0.04300
C          0.16000        6.67600        0.30000
H         -1.99700        5.00300        0.01000
H         -2.02500        2.62200       -0.10400
H          2.22400        2.60700       -0.05900
H          2.23400        4.92600        0.07500
C          1.46000        7.44100       -0.00200
C          1.12500        8.86500       -0.56100
N         -0.25600        8.82400       -0.08300
N         -0.77100        7.51800       -0.43200
C          1.33300       10.33200       -0.26900
H         -1.71600        7.38800       -0.06400
H         -0.79800        9.57400       -0.52000
H          2.07400        7.43800        0.91200
H          2.19400        8.96400       -0.24900
H          2.01400        6.92900       -0.80300
H         -0.05400        6.79700        1.37400
C          1.38800       11.53200       -0.18600
C          1.33000       12.96600       -0.13800
C          0.12100       13.56900       -0.05700
C          0.03900       14.90500        0.08400
C          1.15300       15.69000        0.14300
C          2.34900       15.07100       -0.00600
C          2.43400       13.73100       -0.12800
C          1.03300       17.19400        0.46900
H         -0.95700       15.32300        0.15400
H         -0.79500       12.98100       -0.07000
H          3.41500       13.25900       -0.20100
H          3.26500       15.65100        0.01300
O          2.04900       18.10300       -0.02500
C         -0.04600       19.22400       -0.12300
C         -0.30700       17.77100        0.05900
C          1.86800       20.80100        0.07600
H         -1.05900       17.59400        0.83600
H         -0.35400       19.74700        0.79000
H         -0.61800       19.64100       -0.95700
H         -0.68300       17.35800       -0.88200
H          1.62600       19.42100       -1.46900
C          1.44700       19.35700       -0.39100
H          1.13000       17.25300        1.56000
O          0.81200       21.66600       -0.00700
O          2.97100       21.21900        0.37800
H          1.14700       22.57000        0.16200
