
 OpenBabel11042013053D

 28 29  0  0  1  0  0  0  0  0999 V2000
    1.3520   -0.0150    0.0250 O   0  0  0  0  0  0  0  0  0  0  0  0
    0.0690    0.4020   -0.1060 C   0  0  0  0  0  0  0  0  0  0  0  0
   -0.8200   -0.4240   -0.2170 O   0  0  0  0  0  0  0  0  0  0  0  0
   -0.1260    1.9030   -0.0880 C   0  0  2  0  0  0  0  0  0  0  0  0
    2.0230    0.6320    0.2980 H   0  0  0  0  0  0  0  0  0  0  0  0
   -1.2690    2.5240    0.3010 C   0  0  1  0  0  0  0  0  0  0  0  0
   -1.3010    3.8940    0.3860 C   0  0  2  0  0  0  0  0  0  0  0  0
   -0.2460    4.6920   -0.0170 C   0  0  1  0  0  0  0  0  0  0  0  0
    0.8230    4.0220   -0.5550 C   0  0  1  0  0  0  0  0  0  0  0  0
    0.8830    2.6680   -0.5360 C   0  0  0  0  0  0  0  0  0  0  0  0
   -0.2500    6.2410    0.1070 C   0  0  1  0  0  0  0  0  0  0  0  0
   -2.7760    4.5840    1.0790 Cl  0  0  0  0  0  0  0  0  0  0  0  0
   -2.8320    1.4820    0.7130 Br  0  0  0  0  0  0  0  0  0  0  0  0
    1.7760    2.1960   -0.9340 H   0  0  0  0  0  0  0  0  0  0  0  0
    2.3450    4.7860   -1.4240 Br  0  0  0  0  0  0  0  0  0  0  0  0
   -1.3630    7.0160   -0.0190 C   0  0  0  0  0  0  0  0  0  0  0  0
   -1.3560    8.3510    0.1140 C   0  0  0  0  0  0  0  0  0  0  0  0
   -0.1960    9.0170    0.2730 C   0  0  1  0  0  0  0  0  0  0  0  0
    0.9310    8.3030    0.3980 C   0  0  0  0  0  0  0  0  0  0  0  0
    0.8880    6.9530    0.3600 C   0  0  0  0  0  0  0  0  0  0  0  0
   -0.1220   10.5080    0.3140 C   0  0  0  0  0  0  0  0  0  0  0  0
   -2.2940    8.9060    0.0460 H   0  0  0  0  0  0  0  0  0  0  0  0
   -2.3400    6.6000   -0.2300 H   0  0  0  0  0  0  0  0  0  0  0  0
    1.8420    6.4650    0.5230 H   0  0  0  0  0  0  0  0  0  0  0  0
    1.8890    8.8040    0.5170 H   0  0  0  0  0  0  0  0  0  0  0  0
   -1.3230   11.1070    0.2150 O   0  0  0  0  0  0  0  0  0  0  0  0
    0.9000   11.1680    0.4050 O   0  0  0  0  0  0  0  0  0  0  0  0
   -1.1120   12.0650    0.2400 H   0  0  0  0  0  0  0  0  0  0  0  0
  1  5  1  0  0  0  0
  2  1  1  0  0  0  0
  3  2  2  0  0  0  0
  4  2  1  6  0  0  0
  4 10  5  0  0  0  0
  6  4  5  0  0  0  0
  6  7  5  0  0  0  0
  6 13  1  6  0  0  0
  7 12  1  1  0  0  0
  8  7  5  0  0  0  0
  8 11  1  6  0  0  0
  9  8  5  0  0  0  0
  9 15  1  6  0  0  0
 10  9  5  0  0  0  0
 10 14  1  0  0  0  0
 11 16  5  1  0  0  0
 11 20  5  0  0  0  0
 16 17  5  0  0  0  0
 16 23  1  0  0  0  0
 17 22  1  0  0  0  0
 18 17  5  0  0  0  0
 18 21  1  6  0  0  0
 19 18  5  0  0  0  0
 19 25  1  0  0  0  0
 20 19  5  0  0  0  0
 20 24  1  0  0  0  0
 21 27  2  0  0  0  0
 26 21  1  0  0  0  0
 28 26  1  0  0  0  0
M  END
