36

O          1.26400       -0.29700       -0.00100
C          0.03300        0.26200       -0.00200
O         -0.97900       -0.42600       -0.00700
C         -0.00200        1.74700        0.00000
H          2.01000        0.33500        0.00100
C         -1.19200        2.38800        0.00200
C         -1.24600        3.73900        0.00200
C         -0.11800        4.49600        0.00200
C          1.05700        3.81700        0.00100
C          1.11900        2.48500        0.00200
C         -0.11400        5.98300        0.00100
H         -2.23300        4.19300        0.00300
H         -2.12300        1.82200        0.00300
F          2.34300        1.91600       -0.00100
H          2.02700        4.29400        0.00000
C         -1.23300        6.75600       -0.00100
C         -1.16200        8.10600       -0.00100
C          0.03600        8.72800        0.00000
C          1.14800        7.97600        0.00400
C          1.06900        6.64500        0.00400
C          0.27100       10.14800       -0.00000
H         -2.08900        8.67500       -0.00100
H         -2.22800        6.32100       -0.00100
H          2.03500        6.16200        0.00600
H          2.14000        8.42100        0.00900
C         -0.61500       11.14500        0.00100
C         -0.11600       12.49300        0.00100
H         -1.68600       10.96800        0.00100
H          1.32800       10.42500        0.00100
C         -0.92000       13.55200        0.00100
C         -0.31500       14.88300        0.00100
H         -1.99900       13.47100        0.00000
H          0.96800       12.63000        0.00100
O         -1.28100       15.81000        0.00000
O          0.86800       15.16400        0.00100
H         -0.78400       16.65200        0.00000
