
 OpenBabel11042013053D

 40 42  0  0  1  0  0  0  0  0999 V2000
    1.1570   -0.4300    0.0750 O   0  0  0  0  0  0  0  0  0  0  0  0
   -0.0550    0.1360    0.2920 C   0  0  0  0  0  0  0  0  0  0  0  0
   -1.0270   -0.5730    0.5090 O   0  0  0  0  0  0  0  0  0  0  0  0
   -0.0600    1.6500    0.1970 C   0  0  2  0  0  0  0  0  0  0  0  0
    1.8560    0.2630    0.0600 H   0  0  0  0  0  0  0  0  0  0  0  0
   -1.2610    2.2620    0.0590 C   0  0  1  0  0  0  0  0  0  0  0  0
   -1.3110    3.5960   -0.0830 C   0  0  0  0  0  0  0  0  0  0  0  0
   -0.2100    4.3870   -0.0890 C   0  0  1  0  0  0  0  0  0  0  0  0
    0.9800    3.7790    0.0950 C   0  0  0  0  0  0  0  0  0  0  0  0
    1.0570    2.4300    0.2240 C   0  0  2  0  0  0  0  0  0  0  0  0
   -0.3570    5.8800   -0.4370 C   0  0  2  0  0  0  0  0  0  0  0  0
   -2.2920    4.0300   -0.2480 H   0  0  0  0  0  0  0  0  0  0  0  0
   -2.4480    1.5530    0.0020 O   0  0  0  0  0  0  0  0  0  0  0  0
    2.3700    1.8340    0.3520 N   0  0  0  0  0  0  0  0  0  0  0  0
    1.8840    4.3830    0.0870 H   0  0  0  0  0  0  0  0  0  0  0  0
    0.5130    6.8940    0.1750 O   0  0  0  0  0  0  0  0  0  0  0  0
   -1.5390    7.9470   -0.3210 C   0  0  0  0  0  0  0  0  0  0  0  0
   -1.7460    6.4630   -0.2050 C   0  0  0  0  0  0  0  0  0  0  0  0
    0.3540    9.5480   -0.0170 C   0  0  2  0  0  0  0  0  0  0  0  0
   -2.4880    6.1080   -0.9260 H   0  0  0  0  0  0  0  0  0  0  0  0
   -2.0330    8.3780   -1.1950 H   0  0  0  0  0  0  0  0  0  0  0  0
   -1.9720    8.4170    0.5680 H   0  0  0  0  0  0  0  0  0  0  0  0
   -2.1000    6.2260    0.8060 H   0  0  0  0  0  0  0  0  0  0  0  0
    0.2840    8.0490   -1.4620 H   0  0  0  0  0  0  0  0  0  0  0  0
   -0.0200    8.1170   -0.4060 C   0  0  1  0  0  0  0  0  0  0  0  0
   -0.1390    5.9180   -1.5180 H   0  0  0  0  0  0  0  0  0  0  0  0
    1.7420   10.0580    0.2240 C   0  0  0  0  0  0  0  0  0  0  0  0
    1.3380   11.3480    0.7830 N   0  0  0  0  0  0  0  0  0  0  0  0
    0.1450   11.2110    1.4630 N   0  0  0  0  0  0  0  0  0  0  0  0
   -0.3420   10.0770    1.1860 N   0  0  0  0  0  0  0  0  0  0  0  0
    1.6090   12.5470    0.1520 C   0  0  0  0  0  0  0  0  0  0  0  0
    2.3530   10.1660   -0.6740 H   0  0  0  0  0  0  0  0  0  0  0  0
    2.2780    9.5150    1.0080 H   0  0  0  0  0  0  0  0  0  0  0  0
   -0.0500   10.1420   -0.8570 H   0  0  0  0  0  0  0  0  0  0  0  0
   -3.2410    2.0860    0.1700 H   0  0  0  0  0  0  0  0  0  0  0  0
    2.7990    2.2050    1.2110 H   0  0  0  0  0  0  0  0  0  0  0  0
    2.9950    2.2650   -0.3400 H   0  0  0  0  0  0  0  0  0  0  0  0
    0.7680   13.5540    0.4810 O   0  0  0  0  0  0  0  0  0  0  0  0
    2.4650   12.7400   -0.6990 O   0  0  0  0  0  0  0  0  0  0  0  0
    1.0340   14.2930   -0.1030 H   0  0  0  0  0  0  0  0  0  0  0  0
  1  5  1  0  0  0  0
  2  1  1  0  0  0  0
  3  2  2  0  0  0  0
  4  2  1  6  0  0  0
  4 10  5  0  0  0  0
  6  4  5  0  0  0  0
  6  7  5  0  0  0  0
  6 13  1  6  0  0  0
  7 12  1  0  0  0  0
  8  7  5  6  0  0  0
  8 11  1  0  0  0  0
  9  8  5  0  0  0  0
  9 15  1  0  0  0  0
 10  9  5  0  0  0  0
 10 14  1  6  0  0  0
 11 18  1  0  0  0  0
 11 26  1  6  0  0  0
 13 35  1  0  0  0  0
 14 36  1  0  0  0  0
 14 37  1  0  0  0  0
 16 11  1  0  0  0  0
 17 25  1  0  0  0  0
 17 22  1  0  0  0  0
 18 17  1  0  0  0  0
 18 23  1  0  0  0  0
 19 25  1  0  0  0  0
 19 30  1  0  0  0  0
 19 34  1  6  0  0  0
 20 18  1  0  0  0  0
 21 17  1  0  0  0  0
 25 16  1  0  0  0  0
 25 24  1  6  0  0  0
 27 19  1  0  0  0  0
 27 32  1  0  0  0  0
 27 33  1  0  0  0  0
 28 27  1  0  0  0  0
 29 28  1  0  0  0  0
 30 29  2  0  0  0  0
 31 28  1  0  0  0  0
 31 39  2  0  0  0  0
 38 31  1  0  0  0  0
 40 38  1  0  0  0  0
M  END
