
 OpenBabel11042013033D

 45 47  0  0  1  0  0  0  0  0999 V2000
    1.3170    1.0460    0.3060 O   0  0  0  0  0  0  0  0  0  0  0  0
    0.1640    1.7380    0.3110 C   0  0  0  0  0  0  0  0  0  0  0  0
   -0.9160    1.1540    0.3620 O   0  0  0  0  0  0  0  0  0  0  0  0
    0.2980    3.2400    0.2280 C   0  0  2  0  0  0  0  0  0  0  0  0
    2.1230    1.5690    0.2140 H   0  0  0  0  0  0  0  0  0  0  0  0
   -0.8730    3.8970    0.1470 C   0  0  0  0  0  0  0  0  0  0  0  0
   -0.9530    5.2450    0.0230 C   0  0  1  0  0  0  0  0  0  0  0  0
    0.1890    6.0160   -0.0290 C   0  0  1  0  0  0  0  0  0  0  0  0
    1.3650    5.3320    0.0910 C   0  0  0  0  0  0  0  0  0  0  0  0
    1.4240    3.9830    0.2090 C   0  0  0  0  0  0  0  0  0  0  0  0
    0.1870    7.5640   -0.3110 C   0  0  2  0  0  0  0  0  0  0  0  0
   -2.3660    5.7600   -0.1170 C   0  0  0  0  0  0  0  0  0  0  0  0
   -1.7950    3.3130    0.1620 H   0  0  0  0  0  0  0  0  0  0  0  0
    2.4060    3.5260    0.2730 H   0  0  0  0  0  0  0  0  0  0  0  0
    2.3070    5.8720    0.0520 H   0  0  0  0  0  0  0  0  0  0  0  0
    1.3400    8.5670    0.0150 C   0  0  0  0  0  0  0  0  0  0  0  0
    0.7160    9.8940   -0.4820 C   0  0  1  0  0  0  0  0  0  0  0  0
   -0.7020    9.7440   -0.0950 N   0  0  0  0  0  0  0  0  0  0  0  0
   -0.9110    8.3450    0.2930 N   0  0  0  0  0  0  0  0  0  0  0  0
    1.2010   11.2510   -0.0780 C   0  0  0  0  0  0  0  0  0  0  0  0
   -1.8020    8.0410   -0.0900 H   0  0  0  0  0  0  0  0  0  0  0  0
   -0.8940   10.3510    0.7070 H   0  0  0  0  0  0  0  0  0  0  0  0
    2.2620    8.3280   -0.5260 H   0  0  0  0  0  0  0  0  0  0  0  0
    0.7580    9.8730   -1.5760 H   0  0  0  0  0  0  0  0  0  0  0  0
    1.5650    8.5920    1.0900 H   0  0  0  0  0  0  0  0  0  0  0  0
    0.0590    7.5940   -1.4050 H   0  0  0  0  0  0  0  0  0  0  0  0
    1.3200   12.4450    0.1120 C   0  0  0  0  0  0  0  0  0  0  0  0
    1.1710   13.9060    0.3840 C   0  0  1  0  0  0  0  0  0  0  0  0
   -3.0960    4.9530   -0.2600 H   0  0  0  0  0  0  0  0  0  0  0  0
   -2.6700    6.2860    0.7930 H   0  0  0  0  0  0  0  0  0  0  0  0
   -2.4670    6.3960   -1.0000 H   0  0  0  0  0  0  0  0  0  0  0  0
    2.3580   14.8400    0.1690 C   0  0  0  0  0  0  0  0  0  0  0  0
    1.6560   16.1910    0.2700 C   0  0  2  0  0  0  0  0  0  0  0  0
    0.4580   15.9670   -0.5620 N   0  0  0  0  0  0  0  0  0  0  0  0
    0.1350   14.5410   -0.4620 N   0  0  0  0  0  0  0  0  0  0  0  0
    2.4150   17.4330   -0.1780 C   0  0  0  0  0  0  0  0  0  0  0  0
   -0.7940   14.3600   -0.0780 H   0  0  0  0  0  0  0  0  0  0  0  0
   -0.2910   16.6100   -0.2880 H   0  0  0  0  0  0  0  0  0  0  0  0
    2.8320   14.7080   -0.8140 H   0  0  0  0  0  0  0  0  0  0  0  0
    1.3570   16.3740    1.3120 H   0  0  0  0  0  0  0  0  0  0  0  0
    3.1290   14.7290    0.9360 H   0  0  0  0  0  0  0  0  0  0  0  0
    0.8480   14.0080    1.4300 H   0  0  0  0  0  0  0  0  0  0  0  0
    1.6200   18.5340   -0.2230 O   0  0  0  0  0  0  0  0  0  0  0  0
    3.6160   17.5420   -0.3620 O   0  0  0  0  0  0  0  0  0  0  0  0
    2.2250   19.2700   -0.4560 H   0  0  0  0  0  0  0  0  0  0  0  0
  1  5  1  0  0  0  0
  2  1  1  0  0  0  0
  3  2  2  0  0  0  0
  4  2  1  6  0  0  0
  4 10  5  0  0  0  0
  6  4  5  0  0  0  0
  6  7  5  0  0  0  0
  6 13  1  0  0  0  0
  7 12  1  6  0  0  0
  8  7  5  0  0  0  0
  8  9  5  6  0  0  0
  8 11  1  0  0  0  0
  9 15  1  0  0  0  0
 10  9  5  0  0  0  0
 10 14  1  0  0  0  0
 11 19  1  0  0  0  0
 11 26  1  6  0  0  0
 12 29  1  0  0  0  0
 12 30  1  0  0  0  0
 12 31  1  0  0  0  0
 16 11  1  0  0  0  0
 16 23  1  0  0  0  0
 16 25  1  0  0  0  0
 17 16  1  0  0  0  0
 17 24  1  6  0  0  0
 18 17  1  0  0  0  0
 19 18  1  0  0  0  0
 20 17  1  0  0  0  0
 21 19  1  0  0  0  0
 22 18  1  0  0  0  0
 27 20  3  0  0  0  0
 28 27  1  0  0  0  0
 28 35  1  0  0  0  0
 28 42  1  1  0  0  0
 32 28  1  0  0  0  0
 32 39  1  0  0  0  0
 32 41  1  0  0  0  0
 33 32  1  0  0  0  0
 33 40  1  1  0  0  0
 34 33  1  0  0  0  0
 35 34  1  0  0  0  0
 36 33  1  0  0  0  0
 36 44  2  0  0  0  0
 37 35  1  0  0  0  0
 38 34  1  0  0  0  0
 43 36  1  0  0  0  0
 45 43  1  0  0  0  0
M  END
