45

O          1.31700        1.04600        0.30600
C          0.16400        1.73800        0.31100
O         -0.91600        1.15400        0.36200
C          0.29800        3.24000        0.22800
H          2.12300        1.56900        0.21400
C         -0.87300        3.89700        0.14700
C         -0.95300        5.24500        0.02300
C          0.18900        6.01600       -0.02900
C          1.36500        5.33200        0.09100
C          1.42400        3.98300        0.20900
C          0.18700        7.56400       -0.31100
C         -2.36600        5.76000       -0.11700
H         -1.79500        3.31300        0.16200
H          2.40600        3.52600        0.27300
H          2.30700        5.87200        0.05200
C          1.34000        8.56700        0.01500
C          0.71600        9.89400       -0.48200
N         -0.70200        9.74400       -0.09500
N         -0.91100        8.34500        0.29300
C          1.20100       11.25100       -0.07800
H         -1.80200        8.04100       -0.09000
H         -0.89400       10.35100        0.70700
H          2.26200        8.32800       -0.52600
H          0.75800        9.87300       -1.57600
H          1.56500        8.59200        1.09000
H          0.05900        7.59400       -1.40500
C          1.32000       12.44500        0.11200
C          1.17100       13.90600        0.38400
H         -3.09600        4.95300       -0.26000
H         -2.67000        6.28600        0.79300
H         -2.46700        6.39600       -1.00000
C          2.35800       14.84000        0.16900
C          1.65600       16.19100        0.27000
N          0.45800       15.96700       -0.56200
N          0.13500       14.54100       -0.46200
C          2.41500       17.43300       -0.17800
H         -0.79400       14.36000       -0.07800
H         -0.29100       16.61000       -0.28800
H          2.83200       14.70800       -0.81400
H          1.35700       16.37400        1.31200
H          3.12900       14.72900        0.93600
H          0.84800       14.00800        1.43000
O          1.62000       18.53400       -0.22300
O          3.61600       17.54200       -0.36200
H          2.22500       19.27000       -0.45600
