22

O          0.78400        0.56800       -0.41500
C         -0.43200        1.00000       -0.01200
O         -1.30400        0.20400        0.29700
C         -0.61300        2.48300       -0.00100
H          1.48400        1.24600       -0.46600
C         -1.80600        3.07100       -0.27900
C         -1.90400        4.42000       -0.18400
C         -0.85600        5.19200        0.17400
C          0.34500        4.60600        0.40600
C          0.43700        3.25900        0.33100
C         -1.00900        6.66900        0.30100
F         -3.09700        4.99100       -0.47100
Br        -3.35500        2.12600       -0.82000
F          1.63700        2.68700        0.59400
C          2.18000        5.91000       -0.28600
H          2.51400        6.90300        0.02900
H          1.57400        6.01800       -1.19300
H          3.06200        5.30500       -0.51100
O          1.46700        5.31800        0.80500
O         -2.28200        7.08300        0.44400
O         -0.12000        7.50200        0.29900
H         -2.21000        8.05900        0.49800
