48

O          1.48400       -1.27400       -0.12100
C          0.41700       -0.59600        0.36400
O         -0.44500       -1.18000        1.00600
C          0.43100        0.87900        0.07100
H          2.04400       -0.77200       -0.73800
C         -0.74000        1.55200        0.03700
C         -0.72600        2.88100       -0.13200
C          0.41900        3.58900       -0.29600
C          1.58400        2.89600       -0.28400
C          1.59000        1.56000       -0.08500
C          0.32900        5.06400       -0.31500
H         -1.67700        3.40400       -0.08900
O         -1.96100        0.91400        0.19300
H          2.55800        1.07200       -0.02000
H          2.53300        3.41400       -0.38600
C         -0.72200        5.68700       -0.89900
C         -1.01600        6.96900       -0.61700
C         -0.25200        7.68100        0.24000
C          0.89300        7.11100        0.68200
C          1.17800        5.82200        0.41700
C         -0.65800        9.02200        0.83400
H         -1.93000        7.37900       -1.03800
H         -1.41300        5.13700       -1.53400
H          2.06100        5.39400        0.88600
H          1.55900        7.67300        1.33400
O          0.27900       10.02400        0.42900
C         -1.79800       10.44400       -0.69800
C         -2.03600        9.58500        0.51700
C         -0.05700       12.28000       -0.41900
H         -2.35800       10.22700        1.34600
H         -2.46100       11.31500       -0.72100
H         -1.99300        9.87800       -1.61600
H         -2.82300        8.83900        0.37800
H          0.17500       10.49100       -1.54700
C         -0.31600       10.79900       -0.61700
H         -0.58600        8.91900        1.92600
C          1.36700       12.65800       -0.13500
N          1.10400       13.90400        0.54300
N         -0.12200       13.87500        1.16000
N         -0.74800       12.84900        0.76800
C          1.64200       15.09300        0.12000
H          1.98600       12.76700       -1.02500
H          1.86400       11.99500        0.58800
H         -0.42400       12.82600       -1.29900
H         -2.70400        1.52500        0.30700
O          1.00700       16.18600        0.59100
O          2.56600       15.22900       -0.66800
H          1.45200       16.92200        0.12700
