
 OpenBabel11042013053D

 49 51  0  0  1  0  0  0  0  0999 V2000
    1.3540   -0.2420    0.0640 O   0  0  0  0  0  0  0  0  0  0  0  0
    0.1530    0.3810    0.0050 C   0  0  0  0  0  0  0  0  0  0  0  0
   -0.8530   -0.2430   -0.2940 O   0  0  0  0  0  0  0  0  0  0  0  0
    0.1940    1.8580    0.2640 C   0  0  2  0  0  0  0  0  0  0  0  0
    2.0830    0.2770    0.4440 H   0  0  0  0  0  0  0  0  0  0  0  0
   -0.9320    2.4870    0.6730 C   0  0  1  0  0  0  0  0  0  0  0  0
   -0.9050    3.8210    0.8290 C   0  0  0  0  0  0  0  0  0  0  0  0
    0.1790    4.5680    0.5240 C   0  0  1  0  0  0  0  0  0  0  0  0
    1.3420    3.9490    0.1630 C   0  0  1  0  0  0  0  0  0  0  0  0
    1.3060    2.5930    0.0330 C   0  0  0  0  0  0  0  0  0  0  0  0
   -0.0470    6.0130    0.4910 C   0  0  2  0  0  0  0  0  0  0  0  0
   -1.8230    4.3110    1.1540 H   0  0  0  0  0  0  0  0  0  0  0  0
   -3.1070    2.1740   -0.0850 C   0  0  0  0  0  0  0  0  0  0  0  0
    2.2110    2.1030   -0.3160 H   0  0  0  0  0  0  0  0  0  0  0  0
    2.7100    4.5970   -0.1230 C   0  0  0  0  0  0  0  0  0  0  0  0
   -4.0230    2.4780    0.4300 H   0  0  0  0  0  0  0  0  0  0  0  0
   -2.8030    2.9940   -0.7500 H   0  0  0  0  0  0  0  0  0  0  0  0
   -3.3140    1.2970   -0.7020 H   0  0  0  0  0  0  0  0  0  0  0  0
   -2.1260    1.8240    0.9000 O   0  0  0  0  0  0  0  0  0  0  0  0
   -1.0350    6.4970   -0.3060 C   0  0  0  0  0  0  0  0  0  0  0  0
   -1.1790    7.8110   -0.5100 C   0  0  0  0  0  0  0  0  0  0  0  0
   -0.3240    8.6940    0.0760 C   0  0  1  0  0  0  0  0  0  0  0  0
    0.5870    8.2060    0.9430 C   0  0  0  0  0  0  0  0  0  0  0  0
    0.7250    6.8880    1.1620 C   0  0  0  0  0  0  0  0  0  0  0  0
   -0.4410   10.1530   -0.2820 C   0  0  2  0  0  0  0  0  0  0  0  0
   -1.9750    8.1640   -1.1590 H   0  0  0  0  0  0  0  0  0  0  0  0
   -1.7140    5.8300   -0.8320 H   0  0  0  0  0  0  0  0  0  0  0  0
    1.5050    6.5370    1.8270 H   0  0  0  0  0  0  0  0  0  0  0  0
    1.2720    8.8730    1.4660 H   0  0  0  0  0  0  0  0  0  0  0  0
    2.8950    5.9470   -0.8180 C   0  0  0  0  0  0  0  0  0  0  0  0
    1.9770    6.4670   -1.0780 H   0  0  0  0  0  0  0  0  0  0  0  0
    3.4520    5.8230   -1.7530 H   0  0  0  0  0  0  0  0  0  0  0  0
    3.5060    6.6050   -0.1840 H   0  0  0  0  0  0  0  0  0  0  0  0
    3.3140    3.8960   -0.7170 H   0  0  0  0  0  0  0  0  0  0  0  0
    3.2260    4.6510    0.8470 H   0  0  0  0  0  0  0  0  0  0  0  0
    0.8440   10.9920   -0.2770 C   0  0  0  0  0  0  0  0  0  0  0  0
    0.4700   12.2640    0.4650 C   0  0  2  0  0  0  0  0  0  0  0  0
   -0.9810   12.1830    0.7410 N   0  0  0  0  0  0  0  0  0  0  0  0
   -1.3330   10.8040    0.6780 N   0  0  0  0  0  0  0  0  0  0  0  0
    0.7740   13.5530   -0.2940 C   0  0  0  0  0  0  0  0  0  0  0  0
   -2.3100   10.6390    0.4210 H   0  0  0  0  0  0  0  0  0  0  0  0
   -1.4630   12.7600    0.0370 H   0  0  0  0  0  0  0  0  0  0  0  0
    1.6760   10.5080    0.2430 H   0  0  0  0  0  0  0  0  0  0  0  0
    1.0040   12.3190    1.4200 H   0  0  0  0  0  0  0  0  0  0  0  0
    1.1910   11.1720   -1.3020 H   0  0  0  0  0  0  0  0  0  0  0  0
   -0.8670   10.2540   -1.2950 H   0  0  0  0  0  0  0  0  0  0  0  0
   -0.3310   14.3040   -0.5300 O   0  0  0  0  0  0  0  0  0  0  0  0
    1.8750   13.9520   -0.6370 O   0  0  0  0  0  0  0  0  0  0  0  0
    0.0110   15.1830   -0.7940 H   0  0  0  0  0  0  0  0  0  0  0  0
  1  5  1  0  0  0  0
  2  1  1  0  0  0  0
  3  2  2  0  0  0  0
  4  2  1  6  0  0  0
  4 10  5  0  0  0  0
  6  4  5  0  0  0  0
  6  7  5  0  0  0  0
  6 19  1  6  0  0  0
  7 12  1  0  0  0  0
  8  7  5  6  0  0  0
  8 11  1  0  0  0  0
  9  8  5  0  0  0  0
  9 15  1  6  0  0  0
 10  9  5  0  0  0  0
 10 14  1  0  0  0  0
 11 20  5  6  0  0  0
 11 24  5  0  0  0  0
 13 16  1  0  0  0  0
 13 17  1  0  0  0  0
 13 18  1  0  0  0  0
 13 19  1  0  0  0  0
 15 34  1  0  0  0  0
 15 35  1  0  0  0  0
 20 21  5  0  0  0  0
 20 27  1  0  0  0  0
 21 26  1  0  0  0  0
 22 21  5  6  0  0  0
 22 25  1  0  0  0  0
 23 22  5  0  0  0  0
 23 29  1  0  0  0  0
 24 23  5  0  0  0  0
 24 28  1  0  0  0  0
 25 39  1  0  0  0  0
 25 46  1  6  0  0  0
 30 31  1  0  0  0  0
 30 32  1  0  0  0  0
 30 33  1  0  0  0  0
 30 15  1  0  0  0  0
 36 25  1  0  0  0  0
 36 43  1  0  0  0  0
 36 45  1  0  0  0  0
 37 36  1  0  0  0  0
 37 44  1  1  0  0  0
 38 37  1  0  0  0  0
 39 38  1  0  0  0  0
 40 37  1  0  0  0  0
 40 48  2  0  0  0  0
 41 39  1  0  0  0  0
 42 38  1  0  0  0  0
 47 40  1  0  0  0  0
 49 47  1  0  0  0  0
M  END
