
 OpenBabel11042013053D

 34 35  0  0  1  0  0  0  0  0999 V2000
    0.8670    0.5900   -0.1040 O   0  0  0  0  0  0  0  0  0  0  0  0
   -0.2870    1.2930   -0.1350 C   0  0  0  0  0  0  0  0  0  0  0  0
   -1.3720    0.7270   -0.1690 O   0  0  0  0  0  0  0  0  0  0  0  0
   -0.1440    2.7760   -0.0620 C   0  0  2  0  0  0  0  0  0  0  0  0
    1.6770    1.1350   -0.0890 H   0  0  0  0  0  0  0  0  0  0  0  0
   -1.2610    3.4930    0.1560 C   0  0  0  0  0  0  0  0  0  0  0  0
   -1.1860    4.8280    0.2660 C   0  0  0  0  0  0  0  0  0  0  0  0
   -0.0160    5.5190    0.1480 C   0  0  2  0  0  0  0  0  0  0  0  0
    1.1100    4.7870   -0.1100 C   0  0  1  0  0  0  0  0  0  0  0  0
    1.0210    3.4320   -0.2000 C   0  0  1  0  0  0  0  0  0  0  0  0
   -0.1610    7.0450    0.3600 C   0  0  1  0  0  0  0  0  0  0  0  0
   -2.1200    5.3590    0.4520 H   0  0  0  0  0  0  0  0  0  0  0  0
   -2.2290    3.0020    0.2510 H   0  0  0  0  0  0  0  0  0  0  0  0
    2.1460    2.7140   -0.4280 F   0  0  0  0  0  0  0  0  0  0  0  0
    2.4740    5.3800   -0.3520 C   0  0  0  0  0  0  0  0  0  0  0  0
    1.0010    8.0220    0.6110 C   0  0  0  0  0  0  0  0  0  0  0  0
    0.7250    9.2190   -0.3000 C   0  0  1  0  0  0  0  0  0  0  0  0
   -0.6830    9.0720   -0.6830 N   0  0  0  0  0  0  0  0  0  0  0  0
   -0.9060    7.6540   -0.7570 N   0  0  0  0  0  0  0  0  0  0  0  0
    1.0740   10.4910    0.3650 N   0  0  0  0  0  0  0  0  0  0  0  0
   -1.9000    7.4190   -0.7000 H   0  0  0  0  0  0  0  0  0  0  0  0
   -1.2380    9.5340    0.0430 H   0  0  0  0  0  0  0  0  0  0  0  0
    1.9960    7.6440    0.3970 H   0  0  0  0  0  0  0  0  0  0  0  0
    1.3440    9.1360   -1.2020 H   0  0  0  0  0  0  0  0  0  0  0  0
    1.0050    8.3180    1.6680 H   0  0  0  0  0  0  0  0  0  0  0  0
   -0.7880    7.1520    1.2610 H   0  0  0  0  0  0  0  0  0  0  0  0
    0.3050   11.4230    0.0330 N   0  0  0  0  0  0  0  0  0  0  0  0
    0.7890   12.6700    0.3190 C   0  0  0  0  0  0  0  0  0  0  0  0
    2.4190    6.2030   -1.0710 H   0  0  0  0  0  0  0  0  0  0  0  0
    3.1740    4.6640   -0.7980 H   0  0  0  0  0  0  0  0  0  0  0  0
    2.9230    5.7110    0.5900 H   0  0  0  0  0  0  0  0  0  0  0  0
   -0.1800   13.6010    0.1810 O   0  0  0  0  0  0  0  0  0  0  0  0
    1.9260   13.0180    0.6040 O   0  0  0  0  0  0  0  0  0  0  0  0
    0.3030   14.4400    0.3200 H   0  0  0  0  0  0  0  0  0  0  0  0
  1  5  1  0  0  0  0
  2  1  1  0  0  0  0
  3  2  2  0  0  0  0
  4  2  1  6  0  0  0
  4 10  5  0  0  0  0
  6  4  5  0  0  0  0
  6  7  5  0  0  0  0
  6 13  1  0  0  0  0
  7 12  1  0  0  0  0
  8  7  5  1  0  0  0
  8 11  1  0  0  0  0
  9  8  5  0  0  0  0
  9 15  1  6  0  0  0
 10  9  5  0  0  0  0
 10 14  1  1  0  0  0
 11 19  1  0  0  0  0
 11 26  1  1  0  0  0
 15 29  1  0  0  0  0
 15 30  1  0  0  0  0
 15 31  1  0  0  0  0
 16 11  1  0  0  0  0
 16 23  1  0  0  0  0
 16 25  1  0  0  0  0
 17 16  1  0  0  0  0
 17 24  1  6  0  0  0
 18 17  1  0  0  0  0
 19 18  1  0  0  0  0
 20 17  1  0  0  0  0
 21 19  1  0  0  0  0
 22 18  1  0  0  0  0
 27 20  2  0  0  0  0
 28 27  1  0  0  0  0
 28 33  2  0  0  0  0
 32 28  1  0  0  0  0
 34 32  1  0  0  0  0
M  END
