
 OpenBabel11042013053D

 26 26  0  0  1  0  0  0  0  0999 V2000
    0.3960    0.8800    1.3140 O   0  0  0  0  0  0  0  0  0  0  0  0
   -0.0280    1.4150    0.1550 C   0  0  0  0  0  0  0  0  0  0  0  0
   -0.4620    0.7310   -0.7520 O   0  0  0  0  0  0  0  0  0  0  0  0
    0.0940    2.8820    0.1640 C   0  0  2  0  0  0  0  0  0  0  0  0
    0.2820   -0.0840    1.1850 H   0  0  0  0  0  0  0  0  0  0  0  0
   -1.0580    3.5620    0.4020 C   0  0  1  0  0  0  0  0  0  0  0  0
   -1.0250    4.9090    0.4080 C   0  0  0  0  0  0  0  0  0  0  0  0
    0.1220    5.5790    0.1940 C   0  0  1  0  0  0  0  0  0  0  0  0
    1.2650    4.8900   -0.0370 C   0  0  1  0  0  0  0  0  0  0  0  0
    1.2830    3.5180   -0.0730 C   0  0  2  0  0  0  0  0  0  0  0  0
    0.0590    7.0080    0.1890 C   0  0  0  0  0  0  0  0  0  0  0  0
   -1.9430    5.4690    0.5830 H   0  0  0  0  0  0  0  0  0  0  0  0
   -2.7360    2.7460    0.7210 Br  0  0  0  0  0  0  0  0  0  0  0  0
    2.6230    2.8370   -0.4090 C   0  0  0  0  0  0  0  0  0  0  0  0
    2.7440    5.8060   -0.3130 Cl  0  0  0  0  0  0  0  0  0  0  0  0
   -0.0290    8.2060    0.1390 C   0  0  0  0  0  0  0  0  0  0  0  0
   -0.1620    9.6290    0.0360 C   0  0  0  0  0  0  0  0  0  0  0  0
    2.8510    1.3300   -0.3740 C   0  0  0  0  0  0  0  0  0  0  0  0
    3.8560    1.1100   -0.7530 H   0  0  0  0  0  0  0  0  0  0  0  0
    2.1540    0.7830   -1.0120 H   0  0  0  0  0  0  0  0  0  0  0  0
    2.8110    0.9440    0.6490 H   0  0  0  0  0  0  0  0  0  0  0  0
    2.8830    3.1490   -1.4310 H   0  0  0  0  0  0  0  0  0  0  0  0
    3.3890    3.2470    0.2610 H   0  0  0  0  0  0  0  0  0  0  0  0
   -1.4380   10.0490   -0.0410 O   0  0  0  0  0  0  0  0  0  0  0  0
    0.7820   10.3980    0.0050 O   0  0  0  0  0  0  0  0  0  0  0  0
   -1.3550   11.0210   -0.1240 H   0  0  0  0  0  0  0  0  0  0  0  0
  1  5  1  0  0  0  0
  2  1  1  0  0  0  0
  3  2  2  0  0  0  0
  4  2  1  6  0  0  0
  4 10  5  0  0  0  0
  6  4  5  0  0  0  0
  6  7  5  0  0  0  0
  6 13  1  6  0  0  0
  7 12  1  0  0  0  0
  8  7  5  0  0  0  0
  8 11  1  6  0  0  0
  9  8  5  0  0  0  0
  9 15  1  6  0  0  0
 10  9  5  0  0  0  0
 10 14  1  6  0  0  0
 14 22  1  0  0  0  0
 14 23  1  0  0  0  0
 16 11  3  0  0  0  0
 17 16  1  0  0  0  0
 17 25  2  0  0  0  0
 18 19  1  0  0  0  0
 18 20  1  0  0  0  0
 18 21  1  0  0  0  0
 18 14  1  0  0  0  0
 24 17  1  0  0  0  0
 26 24  1  0  0  0  0
M  END
