23

O          1.37000        0.22200        0.04100
C          0.14500        0.78500       -0.01400
O         -0.84000        0.06900       -0.08600
C          0.07600        2.29100       -0.01000
H          2.16500        0.76900        0.12000
C         -1.13100        2.91900       -0.01200
C         -1.17600        4.27200       -0.06300
C         -0.06400        5.04100       -0.10700
C          1.13800        4.40900       -0.08800
C          1.19300        3.05800       -0.03700
N         -0.21100        6.41000       -0.24200
H         -2.14500        4.77400       -0.08300
C         -2.39700        2.24200        0.02200
H          2.18500        2.62200       -0.04200
Br         2.77900        5.35000       -0.17000
N          0.13500        7.09800        0.74100
C          0.00600        8.40500        0.45700
C         -0.09200        9.58300        0.24000
C         -0.20000       10.99300        0.01300
N         -3.46700        1.79300        0.05400
O         -1.46300       11.45400        0.01900
O          0.76100       11.72500       -0.15200
H         -1.36200       12.41800       -0.12200
