39

O          1.24200        0.68900        0.00000
C         -0.02000        1.39900        0.00000
O         -1.15000        0.73200        0.00000
C         -0.00400        2.64300       -0.00000
H          2.43900        0.44300       -0.00000
C         -1.05400        3.06400       -0.00300
C         -0.67800        4.39000       -0.01100
C          0.14100        5.20600        0.15400
C          1.14800        4.87600       -0.27000
C          0.99200        3.18000       -0.02100
C          0.13900        6.80500        0.00400
C         -1.87700        5.02200        0.00000
H         -1.89700        2.63200       -0.00100
F          1.67100        4.01700        0.01500
H          1.78800        5.39000        0.13700
C          2.60300        6.85400       -0.00000
C          1.51400        9.09500       -0.00000
N         -0.72800        9.56800        0.00000
N         -1.77900        7.81100        0.00000
C          1.11900       11.18800       -0.00000
H         -2.68300        7.35600       -0.00000
H         -2.27600       10.48300       -0.00000
H          4.47600        6.65100       -0.00000
H          3.09300        9.48000       -0.00000
H          2.92500        5.01400       -0.00200
H         -1.44400        6.54900       -0.00100
C         -1.87800        5.02200        0.00000
H         -2.42800        4.24200       -0.00000
H         -1.87800        5.02200        0.00000
H         -2.63200        4.47500       -0.00000
H         -0.98700        4.08700        0.01200
H         -2.72000        5.89700        0.00100
C          0.80700       12.92700        0.00000
C          1.03300       14.42700       -0.00000
H         -0.68200       13.17800       -0.00000
H          2.02200       11.62600       -0.00000
O         -0.48000       15.52600        0.00000
O          2.24800       15.22200        0.00000
H         -0.69800       16.92700       -0.00000
