
 OpenBabel11042013053D

 35 36  0  0  1  0  0  0  0  0999 V2000
    1.3650   -0.4910    0.0090 O   0  0  0  0  0  0  0  0  0  0  0  0
    0.1730    0.1440   -0.0000 C   0  0  0  0  0  0  0  0  0  0  0  0
   -0.8700   -0.4900   -0.0020 O   0  0  0  0  0  0  0  0  0  0  0  0
    0.2180    1.6410   -0.0030 C   0  0  1  0  0  0  0  0  0  0  0  0
    2.1660    0.0540   -0.0040 H   0  0  0  0  0  0  0  0  0  0  0  0
   -0.9680    2.2830   -0.0190 C   0  0  0  0  0  0  0  0  0  0  0  0
   -1.0330    3.6280   -0.0120 C   0  0  2  0  0  0  0  0  0  0  0  0
    0.0810    4.4130    0.0200 C   0  0  2  0  0  0  0  0  0  0  0  0
    1.2590    3.7320    0.0320 C   0  0  0  0  0  0  0  0  0  0  0  0
    1.3360    2.3920    0.0130 C   0  0  0  0  0  0  0  0  0  0  0  0
    0.0700    5.9120    0.0580 C   0  0  2  0  0  0  0  0  0  0  0  0
   -2.2800    4.1450   -0.0330 F   0  0  0  0  0  0  0  0  0  0  0  0
   -1.9030    1.7280   -0.0320 H   0  0  0  0  0  0  0  0  0  0  0  0
    2.3320    1.9660    0.0260 H   0  0  0  0  0  0  0  0  0  0  0  0
    2.2200    4.2450    0.0460 H   0  0  0  0  0  0  0  0  0  0  0  0
   -1.0660    6.6400    0.1040 C   0  0  0  0  0  0  0  0  0  0  0  0
   -1.1280    8.0000    0.0910 C   0  0  1  0  0  0  0  0  0  0  0  0
    0.0400    8.7040    0.0970 C   0  0  1  0  0  0  0  0  0  0  0  0
    1.1910    7.9880    0.0590 C   0  0  0  0  0  0  0  0  0  0  0  0
    1.2070    6.6470    0.0210 C   0  0  0  0  0  0  0  0  0  0  0  0
    0.2360   10.1610    0.0770 C   0  0  0  0  0  0  0  0  0  0  0  0
   -2.5170    8.5900   -0.0840 C   0  0  0  0  0  0  0  0  0  0  0  0
   -2.0280    6.1360    0.1190 H   0  0  0  0  0  0  0  0  0  0  0  0
    2.1920    6.2010   -0.0490 H   0  0  0  0  0  0  0  0  0  0  0  0
    2.1560    8.4880    0.0170 H   0  0  0  0  0  0  0  0  0  0  0  0
   -3.2510    7.8110   -0.3330 H   0  0  0  0  0  0  0  0  0  0  0  0
   -2.9250    9.1310    0.7770 H   0  0  0  0  0  0  0  0  0  0  0  0
   -2.5030    9.2480   -0.9590 H   0  0  0  0  0  0  0  0  0  0  0  0
   -0.6570   11.1590    0.1010 C   0  0  0  0  0  0  0  0  0  0  0  0
   -0.2010   12.5560    0.0420 C   0  0  0  0  0  0  0  0  0  0  0  0
   -1.7230   11.0170    0.1460 H   0  0  0  0  0  0  0  0  0  0  0  0
    1.2870   10.4680    0.0360 H   0  0  0  0  0  0  0  0  0  0  0  0
   -1.2640   13.3760    0.0010 O   0  0  0  0  0  0  0  0  0  0  0  0
    0.9420   12.9680    0.0210 O   0  0  0  0  0  0  0  0  0  0  0  0
   -0.8760   14.2740   -0.0420 H   0  0  0  0  0  0  0  0  0  0  0  0
  1  5  1  0  0  0  0
  2  1  1  0  0  0  0
  3  2  2  0  0  0  0
  4  2  1  1  0  0  0
  4 10  5  0  0  0  0
  6  4  5  0  0  0  0
  6  7  5  0  0  0  0
  6 13  1  0  0  0  0
  7 12  1  1  0  0  0
  8  7  5  0  0  0  0
  8  9  5  1  0  0  0
  8 11  1  0  0  0  0
  9 15  1  0  0  0  0
 10  9  5  0  0  0  0
 10 14  1  0  0  0  0
 11 16  5  6  0  0  0
 11 20  5  0  0  0  0
 16 17  5  0  0  0  0
 16 23  1  0  0  0  0
 17 22  1  6  0  0  0
 18 17  5  0  0  0  0
 18 21  1  6  0  0  0
 19 18  5  0  0  0  0
 19 25  1  0  0  0  0
 20 19  5  0  0  0  0
 20 24  1  0  0  0  0
 21 32  1  0  0  0  0
 22 26  1  0  0  0  0
 22 27  1  0  0  0  0
 22 28  1  0  0  0  0
 29 21  2  0  0  0  0
 29 31  1  0  0  0  0
 30 29  1  0  0  0  0
 30 34  2  0  0  0  0
 33 30  1  0  0  0  0
 35 33  1  0  0  0  0
M  END
