38

O          1.59700        0.29800       -0.51800
C          0.42900        0.86900       -0.14300
O         -0.50500        0.19700        0.26700
C          0.43200        2.36400       -0.20000
H          2.22600        0.90700       -0.94200
C         -0.68700        3.04300       -0.56200
C         -0.69000        4.40900       -0.50900
C          0.45100        5.06200       -0.15200
C          1.55800        4.37000        0.17900
C          1.54400        3.02700        0.18100
C          0.48000        6.48800       -0.05200
C         -1.95500        5.20100       -0.82300
C         -2.83200        2.11700       -0.13900
H          2.43800        2.50400        0.51000
H          2.46400        4.89300        0.47900
C         -2.69100        5.58900        0.46100
H         -2.25100        6.48000        0.92100
H         -2.65600        4.79000        1.21100
H         -3.74200        5.81000        0.25300
H         -2.62800        4.63000       -1.47000
H         -1.73800        6.10200       -1.41600
C          0.33100        7.66300        0.14300
C         -0.03800        9.01500        0.54700
C          1.01500       10.06200        0.35700
N          0.16800       11.16700       -0.00200
N         -1.04300       10.75400       -0.47400
N         -1.14100        9.50500       -0.31000
C          0.52200       12.48000        0.10900
H          1.69300        9.86800       -0.48100
H          1.59600       10.27100        1.25900
H         -0.39800        9.00600        1.58300
H         -3.47300        1.33500       -0.55600
H         -2.45700        1.78600        0.83300
H         -3.45400        3.00600       -0.01600
O         -1.78300        2.35600       -1.07600
O         -0.45100       13.34800       -0.23200
O          1.59900       12.90200        0.50600
H         -0.04600       14.22300       -0.06900
