
 OpenBabel11042013053D

 27 27  0  0  1  0  0  0  0  0999 V2000
    1.1230    1.4610   -0.4430 O   0  0  0  0  0  0  0  0  0  0  0  0
   -0.0580    1.7860    0.1280 C   0  0  0  0  0  0  0  0  0  0  0  0
   -0.8340    0.9480    0.5440 O   0  0  0  0  0  0  0  0  0  0  0  0
   -0.2410    3.2510    0.0730 C   0  0  2  0  0  0  0  0  0  0  0  0
    1.1350    0.4810   -0.4430 H   0  0  0  0  0  0  0  0  0  0  0  0
   -0.8330    3.7660   -1.0210 C   0  0  2  0  0  0  0  0  0  0  0  0
   -0.7410    5.0910   -1.2460 C   0  0  1  0  0  0  0  0  0  0  0  0
   -0.2440    5.8900   -0.2730 C   0  0  1  0  0  0  0  0  0  0  0  0
    0.1880    5.3870    0.9070 C   0  0  1  0  0  0  0  0  0  0  0  0
    0.2600    4.0320    1.0530 C   0  0  1  0  0  0  0  0  0  0  0  0
   -0.1710    7.3310   -0.5560 C   0  0  0  0  0  0  0  0  0  0  0  0
   -1.1350    5.6130   -2.4700 O   0  0  0  0  0  0  0  0  0  0  0  0
   -2.8690    2.7570   -1.3160 C   0  0  0  0  0  0  0  0  0  0  0  0
    2.1820    3.3660    2.1990 C   0  0  0  0  0  0  0  0  0  0  0  0
    0.6900    6.5300    2.3350 Br  0  0  0  0  0  0  0  0  0  0  0  0
   -2.8050    2.1410   -0.4120 H   0  0  0  0  0  0  0  0  0  0  0  0
   -3.3530    3.7090   -1.0610 H   0  0  0  0  0  0  0  0  0  0  0  0
   -3.5030    2.2300   -2.0330 H   0  0  0  0  0  0  0  0  0  0  0  0
   -1.5650    2.9710   -1.9070 O   0  0  0  0  0  0  0  0  0  0  0  0
   -1.1320    4.9170   -3.1550 H   0  0  0  0  0  0  0  0  0  0  0  0
    2.4800    2.5180    2.8220 H   0  0  0  0  0  0  0  0  0  0  0  0
    2.5900    3.2160    1.1940 H   0  0  0  0  0  0  0  0  0  0  0  0
    2.6020    4.2740    2.6390 H   0  0  0  0  0  0  0  0  0  0  0  0
    0.7560    3.4350    2.2070 O   0  0  0  0  0  0  0  0  0  0  0  0
   -1.3790    7.9220   -0.5410 O   0  0  0  0  0  0  0  0  0  0  0  0
    0.8510    7.9620   -0.7650 O   0  0  0  0  0  0  0  0  0  0  0  0
   -1.1810    8.8490   -0.7870 H   0  0  0  0  0  0  0  0  0  0  0  0
  1  5  1  0  0  0  0
  2  1  1  0  0  0  0
  3  2  2  0  0  0  0
  4  2  1  6  0  0  0
  4 10  5  0  0  0  0
  6  4  5  0  0  0  0
  6  7  5  0  0  0  0
  6 19  1  1  0  0  0
  7 12  1  6  0  0  0
  8  7  5  0  0  0  0
  8 11  1  6  0  0  0
  9  8  5  0  0  0  0
  9 15  1  6  0  0  0
 10  9  5  0  0  0  0
 10 24  1  1  0  0  0
 11 26  2  0  0  0  0
 12 20  1  0  0  0  0
 13 16  1  0  0  0  0
 13 17  1  0  0  0  0
 13 18  1  0  0  0  0
 13 19  1  0  0  0  0
 14 21  1  0  0  0  0
 14 22  1  0  0  0  0
 14 23  1  0  0  0  0
 14 24  1  0  0  0  0
 25 11  1  0  0  0  0
 27 25  1  0  0  0  0
M  END
