
 OpenBabel11042013053D

 39 40  0  0  1  0  0  0  0  0999 V2000
    1.7590    0.2120   -0.1410 O   0  0  0  0  0  0  0  0  0  0  0  0
    0.5220    0.7250   -0.3150 C   0  0  0  0  0  0  0  0  0  0  0  0
   -0.4660    0.0250   -0.4660 O   0  0  0  0  0  0  0  0  0  0  0  0
    0.4730    2.2110   -0.2410 C   0  0  2  0  0  0  0  0  0  0  0  0
    2.4290    0.8610    0.1380 H   0  0  0  0  0  0  0  0  0  0  0  0
   -0.5860    2.7650    0.3710 C   0  0  0  0  0  0  0  0  0  0  0  0
   -0.7340    4.1080    0.5000 C   0  0  2  0  0  0  0  0  0  0  0  0
    0.2290    4.9510    0.0090 C   0  0  2  0  0  0  0  0  0  0  0  0
    1.2600    4.3500   -0.6670 C   0  0  0  0  0  0  0  0  0  0  0  0
    1.4010    3.0150   -0.7800 C   0  0  0  0  0  0  0  0  0  0  0  0
    0.3090    6.4850    0.1260 C   0  0  2  0  0  0  0  0  0  0  0  0
   -3.0930    3.9640    0.6860 C   0  0  0  0  0  0  0  0  0  0  0  0
   -1.3400    2.0970    0.7810 H   0  0  0  0  0  0  0  0  0  0  0  0
    2.2590    2.6130   -1.3120 H   0  0  0  0  0  0  0  0  0  0  0  0
    2.0420    4.9530   -1.1320 H   0  0  0  0  0  0  0  0  0  0  0  0
   -3.9170    4.6610    0.8630 H   0  0  0  0  0  0  0  0  0  0  0  0
   -3.2970    3.0550    1.2590 H   0  0  0  0  0  0  0  0  0  0  0  0
   -3.0720    3.7460   -0.3910 H   0  0  0  0  0  0  0  0  0  0  0  0
   -1.8720    4.5770    1.1410 O   0  0  0  0  0  0  0  0  0  0  0  0
   -0.7230    7.3780   -0.1000 C   0  0  2  0  0  0  0  0  0  0  0  0
   -0.4540    8.7110   -0.1400 C   0  0  0  0  0  0  0  0  0  0  0  0
    0.7750    9.2090    0.0550 C   0  0  2  0  0  0  0  0  0  0  0  0
    1.7660    8.3590    0.3560 C   0  0  0  0  0  0  0  0  0  0  0  0
    1.5400    7.0380    0.4240 C   0  0  1  0  0  0  0  0  0  0  0  0
    1.0810   10.6640   -0.0120 C   0  0  0  0  0  0  0  0  0  0  0  0
   -1.2440    9.4290   -0.3400 H   0  0  0  0  0  0  0  0  0  0  0  0
   -2.1860    6.9860   -0.2790 C   0  0  0  0  0  0  0  0  0  0  0  0
    2.6470    6.2900    0.8180 O   0  0  0  0  0  0  0  0  0  0  0  0
    2.7660    8.7410    0.5540 H   0  0  0  0  0  0  0  0  0  0  0  0
   -3.2500    8.0590   -0.5740 C   0  0  0  0  0  0  0  0  0  0  0  0
   -3.2910    8.8020    0.2340 H   0  0  0  0  0  0  0  0  0  0  0  0
   -3.0630    8.5730   -1.5190 H   0  0  0  0  0  0  0  0  0  0  0  0
   -4.2380    7.5930   -0.6230 H   0  0  0  0  0  0  0  0  0  0  0  0
   -2.2710    6.2110   -1.0520 H   0  0  0  0  0  0  0  0  0  0  0  0
   -2.5160    6.6020    0.6830 H   0  0  0  0  0  0  0  0  0  0  0  0
    2.3780    5.4750    1.2690 H   0  0  0  0  0  0  0  0  0  0  0  0
   -0.0160   11.4380   -0.1180 O   0  0  0  0  0  0  0  0  0  0  0  0
    2.1910   11.1670    0.0190 O   0  0  0  0  0  0  0  0  0  0  0  0
    0.3480   12.3470   -0.1410 H   0  0  0  0  0  0  0  0  0  0  0  0
  1  5  1  0  0  0  0
  2  1  1  0  0  0  0
  3  2  2  0  0  0  0
  4  2  1  6  0  0  0
  4 10  5  0  0  0  0
  6  4  5  0  0  0  0
  6  7  5  0  0  0  0
  6 13  1  0  0  0  0
  7 19  1  1  0  0  0
  8  7  5  0  0  0  0
  8  9  5  1  0  0  0
  9 15  1  0  0  0  0
 10  9  5  0  0  0  0
 10 14  1  0  0  0  0
 11  8  1  6  0  0  0
 11 24  5  0  0  0  0
 12 16  1  0  0  0  0
 12 17  1  0  0  0  0
 12 18  1  0  0  0  0
 12 19  1  0  0  0  0
 20 11  5  0  0  0  0
 20 21  5  0  0  0  0
 20 27  1  1  0  0  0
 21 26  1  0  0  0  0
 22 21  5  0  0  0  0
 22 25  1  1  0  0  0
 23 22  5  0  0  0  0
 23 29  1  0  0  0  0
 24 23  5  0  0  0  0
 24 28  1  1  0  0  0
 25 38  2  0  0  0  0
 27 34  1  0  0  0  0
 27 35  1  0  0  0  0
 28 36  1  0  0  0  0
 30 31  1  0  0  0  0
 30 32  1  0  0  0  0
 30 33  1  0  0  0  0
 30 27  1  0  0  0  0
 37 25  1  0  0  0  0
 39 37  1  0  0  0  0
M  END
