26

O          1.55900        0.32000       -0.14000
C          0.57500        0.90400        0.57100
O         -0.11200        0.26600        1.35600
C          0.34000        2.36100        0.28200
H          2.20700        0.94000       -0.52600
C         -0.95100        2.78600        0.09800
C         -1.21000        4.13300        0.12300
C         -0.16500        5.00400        0.13300
C          1.12200        4.57000        0.15100
C          1.36200        3.24200        0.29500
C         -0.38800        6.48900        0.18400
C         -3.64800        4.18500       -0.39300
C         -2.05200        1.75900       -0.10400
Cl         3.02100        2.69900        0.52000
C          2.22800        5.47200        0.01500
N          3.15700        6.14600       -0.18900
H         -2.71300        1.68900        0.76000
H         -1.68600        0.75300       -0.33600
H         -2.62100        1.99300       -1.01000
H         -4.38500        4.99300       -0.41200
H         -3.47300        3.88100       -1.42800
H         -4.07800        3.38300        0.21100
O         -2.47600        4.69400        0.21100
O         -1.48500        6.94000       -0.43900
O          0.35200        7.29000        0.73700
H         -1.50200        7.89400       -0.20900
