
 OpenBabel11042013053D

 41 43  0  0  1  0  0  0  0  0999 V2000
    1.2820   -0.7410   -0.1170 O   0  0  0  0  0  0  0  0  0  0  0  0
    0.0920   -0.1140   -0.2140 C   0  0  0  0  0  0  0  0  0  0  0  0
   -0.9430   -0.7410   -0.3950 O   0  0  0  0  0  0  0  0  0  0  0  0
    0.1360    1.3730   -0.0740 C   0  0  2  0  0  0  0  0  0  0  0  0
    2.0380   -0.1910    0.1410 H   0  0  0  0  0  0  0  0  0  0  0  0
   -1.0640    1.9900    0.0420 C   0  0  0  0  0  0  0  0  0  0  0  0
   -1.1350    3.3290    0.1550 C   0  0  0  0  0  0  0  0  0  0  0  0
   -0.0050    4.0560    0.1530 C   0  0  1  0  0  0  0  0  0  0  0  0
    1.1930    3.4550    0.0430 C   0  0  0  0  0  0  0  0  0  0  0  0
    1.2660    2.1170   -0.0790 C   0  0  0  0  0  0  0  0  0  0  0  0
   -0.0670    5.4620    0.2220 C   0  0  0  0  0  0  0  0  0  0  0  0
   -2.1060    3.8150    0.2340 H   0  0  0  0  0  0  0  0  0  0  0  0
   -1.9930    1.4230    0.0320 H   0  0  0  0  0  0  0  0  0  0  0  0
    2.2580    1.6970   -0.1960 H   0  0  0  0  0  0  0  0  0  0  0  0
    2.1050    4.0500    0.0360 H   0  0  0  0  0  0  0  0  0  0  0  0
   -0.0890    6.6570    0.1970 C   0  0  0  0  0  0  0  0  0  0  0  0
   -0.1040    8.0560    0.1160 C   0  0  2  0  0  0  0  0  0  0  0  0
   -1.2670    8.7130    0.2280 C   0  0  0  0  0  0  0  0  0  0  0  0
   -1.2780   10.0540    0.1710 C   0  0  0  0  0  0  0  0  0  0  0  0
   -0.1380   10.7720   -0.0040 C   0  0  2  0  0  0  0  0  0  0  0  0
    1.0160   10.0650   -0.1510 C   0  0  0  0  0  0  0  0  0  0  0  0
    1.0390    8.7260   -0.0850 C   0  0  0  0  0  0  0  0  0  0  0  0
   -0.1450   12.2590   -0.0230 C   0  0  1  0  0  0  0  0  0  0  0  0
   -2.2530   10.5150    0.2800 H   0  0  0  0  0  0  0  0  0  0  0  0
   -2.1970    8.1690    0.3720 H   0  0  0  0  0  0  0  0  0  0  0  0
    1.9830    8.1970   -0.1920 H   0  0  0  0  0  0  0  0  0  0  0  0
    1.9800   10.5290   -0.3230 H   0  0  0  0  0  0  0  0  0  0  0  0
   -1.2920   12.9800    0.0200 C   0  0  0  0  0  0  0  0  0  0  0  0
   -1.2840   14.3240    0.0200 C   0  0  0  0  0  0  0  0  0  0  0  0
   -0.1190   15.0060   -0.0460 C   0  0  2  0  0  0  0  0  0  0  0  0
    1.0420   14.3220   -0.1010 C   0  0  1  0  0  0  0  0  0  0  0  0
    1.0070   12.9710   -0.0730 C   0  0  0  0  0  0  0  0  0  0  0  0
   -0.1420   16.4920   -0.0480 C   0  0  0  0  0  0  0  0  0  0  0  0
   -2.2410   14.8390    0.0730 H   0  0  0  0  0  0  0  0  0  0  0  0
   -2.2700   12.5110    0.0610 H   0  0  0  0  0  0  0  0  0  0  0  0
    1.9710   12.4670   -0.0940 H   0  0  0  0  0  0  0  0  0  0  0  0
    2.3370   14.9220   -0.2170 C   0  0  0  0  0  0  0  0  0  0  0  0
    3.4280   15.2970   -0.3480 N   0  0  0  0  0  0  0  0  0  0  0  0
   -1.3750   17.0030   -0.2200 O   0  0  0  0  0  0  0  0  0  0  0  0
    0.8130   17.2330    0.0820 O   0  0  0  0  0  0  0  0  0  0  0  0
   -1.2260   17.9710   -0.2050 H   0  0  0  0  0  0  0  0  0  0  0  0
  1  5  1  0  0  0  0
  2  1  1  0  0  0  0
  3  2  2  0  0  0  0
  4  2  1  6  0  0  0
  4 10  5  0  0  0  0
  6  4  5  0  0  0  0
  6  7  5  0  0  0  0
  6 13  1  0  0  0  0
  7 12  1  0  0  0  0
  8  7  5  0  0  0  0
  8 11  1  6  0  0  0
  9  8  5  0  0  0  0
  9 15  1  0  0  0  0
 10  9  5  0  0  0  0
 10 14  1  0  0  0  0
 16 11  3  0  0  0  0
 17 16  1  6  0  0  0
 17 22  5  0  0  0  0
 18 17  5  0  0  0  0
 18 19  5  0  0  0  0
 18 25  1  0  0  0  0
 19 24  1  0  0  0  0
 20 19  5  1  0  0  0
 20 23  1  0  0  0  0
 21 20  5  0  0  0  0
 21 27  1  0  0  0  0
 22 21  5  0  0  0  0
 22 26  1  0  0  0  0
 23 28  5  1  0  0  0
 23 32  5  0  0  0  0
 28 29  5  0  0  0  0
 28 35  1  0  0  0  0
 29 34  1  0  0  0  0
 30 29  5  0  0  0  0
 30 33  1  1  0  0  0
 31 30  5  0  0  0  0
 31 37  1  6  0  0  0
 32 31  5  0  0  0  0
 32 36  1  0  0  0  0
 33 40  2  0  0  0  0
 37 38  3  0  0  0  0
 39 33  1  0  0  0  0
 41 39  1  0  0  0  0
M  END
