40

O          1.21100        1.55200        0.11400
C          0.12400        2.19600       -0.38200
O         -0.75700        1.57700       -0.95500
C          0.14000        3.69200       -0.19400
H          1.82700        2.09200        0.63600
C         -0.97200        4.36200        0.16300
C         -0.91800        5.73700        0.26300
C          0.23600        6.45900        0.01200
C          1.32600        5.71600       -0.32400
C          1.28500        4.36600       -0.42800
C          0.29200        8.02400        0.19600
Cl        -2.37700        6.59000        0.77400
Br        -2.59700        3.43200        0.58800
H          2.19700        3.84000       -0.72000
H          2.27300        6.21800       -0.50700
C          1.41300        9.08500       -0.16700
C          0.69900       10.38400        0.32000
N         -0.71600       10.13200       -0.07700
N         -0.80900        8.73800       -0.48000
C          1.00100       11.94200        0.27600
H         -1.70500        8.34300       -0.17600
H         -0.93600       10.73500       -0.87900
H          2.33800        8.89000        0.38400
H          0.71100       10.22300        1.41000
H          1.62500        9.10000       -1.24400
H          0.16000        8.11300        1.28700
C          2.26000       12.73700       -0.08400
C          1.78600       14.17900        0.25300
N          0.32100       14.15900       -0.00400
N         -0.01500       12.79500       -0.40500
C          2.44100       15.39000       -0.42100
H         -0.94100       12.55000       -0.03800
H          0.07700       14.87000       -0.70400
H          3.12200       12.47000        0.53400
H          1.92000       14.35400        1.33100
H          2.53800       12.66100       -1.14300
H          0.85500       12.18100        1.34700
O          1.61600       16.47100       -0.47100
O          3.60600       15.49900       -0.76900
H          2.17600       17.22500       -0.75200
