
 OpenBabel11042013053D

 40 42  0  0  1  0  0  0  0  0999 V2000
    1.2110    1.5520    0.1140 O   0  0  0  0  0  0  0  0  0  0  0  0
    0.1240    2.1960   -0.3820 C   0  0  0  0  0  0  0  0  0  0  0  0
   -0.7570    1.5770   -0.9550 O   0  0  0  0  0  0  0  0  0  0  0  0
    0.1400    3.6920   -0.1940 C   0  0  2  0  0  0  0  0  0  0  0  0
    1.8270    2.0920    0.6360 H   0  0  0  0  0  0  0  0  0  0  0  0
   -0.9720    4.3620    0.1630 C   0  0  2  0  0  0  0  0  0  0  0  0
   -0.9180    5.7370    0.2630 C   0  0  2  0  0  0  0  0  0  0  0  0
    0.2360    6.4590    0.0120 C   0  0  2  0  0  0  0  0  0  0  0  0
    1.3260    5.7160   -0.3240 C   0  0  0  0  0  0  0  0  0  0  0  0
    1.2850    4.3660   -0.4280 C   0  0  0  0  0  0  0  0  0  0  0  0
    0.2920    8.0240    0.1960 C   0  0  1  0  0  0  0  0  0  0  0  0
   -2.3770    6.5900    0.7740 Cl  0  0  0  0  0  0  0  0  0  0  0  0
   -2.5970    3.4320    0.5880 Br  0  0  0  0  0  0  0  0  0  0  0  0
    2.1970    3.8400   -0.7200 H   0  0  0  0  0  0  0  0  0  0  0  0
    2.2730    6.2180   -0.5070 H   0  0  0  0  0  0  0  0  0  0  0  0
    1.4130    9.0850   -0.1670 C   0  0  0  0  0  0  0  0  0  0  0  0
    0.6990   10.3840    0.3200 C   0  0  2  0  0  0  0  0  0  0  0  0
   -0.7160   10.1320   -0.0770 N   0  0  0  0  0  0  0  0  0  0  0  0
   -0.8090    8.7380   -0.4800 N   0  0  0  0  0  0  0  0  0  0  0  0
    1.0010   11.9420    0.2760 C   0  0  1  0  0  0  0  0  0  0  0  0
   -1.7050    8.3430   -0.1760 H   0  0  0  0  0  0  0  0  0  0  0  0
   -0.9360   10.7350   -0.8790 H   0  0  0  0  0  0  0  0  0  0  0  0
    2.3380    8.8900    0.3840 H   0  0  0  0  0  0  0  0  0  0  0  0
    0.7110   10.2230    1.4100 H   0  0  0  0  0  0  0  0  0  0  0  0
    1.6250    9.1000   -1.2440 H   0  0  0  0  0  0  0  0  0  0  0  0
    0.1600    8.1130    1.2870 H   0  0  0  0  0  0  0  0  0  0  0  0
    2.2600   12.7370   -0.0840 C   0  0  0  0  0  0  0  0  0  0  0  0
    1.7860   14.1790    0.2530 C   0  0  2  0  0  0  0  0  0  0  0  0
    0.3210   14.1590   -0.0040 N   0  0  0  0  0  0  0  0  0  0  0  0
   -0.0150   12.7950   -0.4050 N   0  0  0  0  0  0  0  0  0  0  0  0
    2.4410   15.3900   -0.4210 C   0  0  0  0  0  0  0  0  0  0  0  0
   -0.9410   12.5500   -0.0380 H   0  0  0  0  0  0  0  0  0  0  0  0
    0.0770   14.8700   -0.7040 H   0  0  0  0  0  0  0  0  0  0  0  0
    3.1220   12.4700    0.5340 H   0  0  0  0  0  0  0  0  0  0  0  0
    1.9200   14.3540    1.3310 H   0  0  0  0  0  0  0  0  0  0  0  0
    2.5380   12.6610   -1.1430 H   0  0  0  0  0  0  0  0  0  0  0  0
    0.8550   12.1810    1.3470 H   0  0  0  0  0  0  0  0  0  0  0  0
    1.6160   16.4710   -0.4710 O   0  0  0  0  0  0  0  0  0  0  0  0
    3.6060   15.4990   -0.7690 O   0  0  0  0  0  0  0  0  0  0  0  0
    2.1760   17.2250   -0.7520 H   0  0  0  0  0  0  0  0  0  0  0  0
  1  5  1  0  0  0  0
  2  1  1  0  0  0  0
  3  2  2  0  0  0  0
  4  2  1  6  0  0  0
  4 10  5  0  0  0  0
  6  4  5  0  0  0  0
  6  7  5  0  0  0  0
  6 13  1  1  0  0  0
  7 12  1  1  0  0  0
  8  7  5  0  0  0  0
  8  9  5  1  0  0  0
  8 11  1  0  0  0  0
  9 15  1  0  0  0  0
 10  9  5  0  0  0  0
 10 14  1  0  0  0  0
 11 19  1  0  0  0  0
 11 26  1  1  0  0  0
 16 11  1  0  0  0  0
 16 23  1  0  0  0  0
 16 25  1  0  0  0  0
 17 16  1  0  0  0  0
 17 24  1  1  0  0  0
 18 17  1  0  0  0  0
 19 18  1  0  0  0  0
 20 17  1  0  0  0  0
 20 30  1  0  0  0  0
 20 37  1  1  0  0  0
 21 19  1  0  0  0  0
 22 18  1  0  0  0  0
 27 20  1  0  0  0  0
 27 34  1  0  0  0  0
 27 36  1  0  0  0  0
 28 27  1  0  0  0  0
 28 35  1  1  0  0  0
 29 28  1  0  0  0  0
 30 29  1  0  0  0  0
 31 28  1  0  0  0  0
 31 39  2  0  0  0  0
 32 30  1  0  0  0  0
 33 29  1  0  0  0  0
 38 31  1  0  0  0  0
 40 38  1  0  0  0  0
M  END
