
 OpenBabel11042013033D

 51 54  0  0  1  0  0  0  0  0999 V2000
    1.9080   -0.9990    0.1680 O   0  0  0  0  0  0  0  0  0  0  0  0
    0.6430   -0.5700    0.3630 C   0  0  0  0  0  0  0  0  0  0  0  0
   -0.2370   -1.3260    0.7470 O   0  0  0  0  0  0  0  0  0  0  0  0
    0.4100    0.8780    0.0540 C   0  0  1  0  0  0  0  0  0  0  0  0
    2.4970   -0.3620   -0.2660 H   0  0  0  0  0  0  0  0  0  0  0  0
   -0.8720    1.2280   -0.1740 C   0  0  0  0  0  0  0  0  0  0  0  0
   -1.1940    2.5100   -0.4150 C   0  0  0  0  0  0  0  0  0  0  0  0
   -0.2550    3.4900   -0.4250 C   0  0  2  0  0  0  0  0  0  0  0  0
    1.0310    3.1240   -0.2160 C   0  0  0  0  0  0  0  0  0  0  0  0
    1.3630    1.8370    0.0260 C   0  0  0  0  0  0  0  0  0  0  0  0
   -0.7150    4.9390   -0.5930 C   0  0  2  0  0  0  0  0  0  0  0  0
   -2.2450    2.7530   -0.5700 H   0  0  0  0  0  0  0  0  0  0  0  0
   -1.6670    0.4830   -0.1430 H   0  0  0  0  0  0  0  0  0  0  0  0
    2.4070    1.6170    0.2290 H   0  0  0  0  0  0  0  0  0  0  0  0
    1.8150    3.8810   -0.2140 H   0  0  0  0  0  0  0  0  0  0  0  0
    0.3530    5.9080   -0.5660 O   0  0  0  0  0  0  0  0  0  0  0  0
   -1.3130    6.6720    0.9700 C   0  0  0  0  0  0  0  0  0  0  0  0
   -1.6960    5.2940    0.5230 C   0  0  0  0  0  0  0  0  0  0  0  0
    0.4730    8.2860    0.0900 C   0  0  1  0  0  0  0  0  0  0  0  0
   -1.6330    4.6090    1.3760 H   0  0  0  0  0  0  0  0  0  0  0  0
   -1.4050    6.8000    2.0530 H   0  0  0  0  0  0  0  0  0  0  0  0
   -2.0220    7.3770    0.5290 H   0  0  0  0  0  0  0  0  0  0  0  0
   -2.7310    5.2530    0.1620 H   0  0  0  0  0  0  0  0  0  0  0  0
    0.7820    6.5140    1.3300 H   0  0  0  0  0  0  0  0  0  0  0  0
    0.1380    6.8400    0.5050 C   0  0  2  0  0  0  0  0  0  0  0  0
   -1.1890    5.0460   -1.5770 H   0  0  0  0  0  0  0  0  0  0  0  0
   -0.4430    8.9790   -0.6250 C   0  0  0  0  0  0  0  0  0  0  0  0
   -0.3150   10.2900   -0.8560 C   0  0  0  0  0  0  0  0  0  0  0  0
    0.7420   10.9990   -0.4050 C   0  0  1  0  0  0  0  0  0  0  0  0
    1.7120   10.3000    0.2370 C   0  0  0  0  0  0  0  0  0  0  0  0
    1.5920    8.9650    0.4800 C   0  0  2  0  0  0  0  0  0  0  0  0
    0.7370   12.5040   -0.6740 C   0  0  2  0  0  0  0  0  0  0  0  0
   -1.1140   10.7720   -1.4110 H   0  0  0  0  0  0  0  0  0  0  0  0
   -1.3360    8.4980   -1.0140 H   0  0  0  0  0  0  0  0  0  0  0  0
    2.6700    8.2840    1.1460 C   0  0  0  0  0  0  0  0  0  0  0  0
    2.6040   10.8320    0.5730 H   0  0  0  0  0  0  0  0  0  0  0  0
    3.5410    7.7120    1.6500 N   0  0  0  0  0  0  0  0  0  0  0  0
    1.6000   13.3270    0.1380 O   0  0  0  0  0  0  0  0  0  0  0  0
   -0.3030   14.6320   -0.3650 C   0  0  0  0  0  0  0  0  0  0  0  0
   -0.6250   13.1620   -0.4470 C   0  0  0  0  0  0  0  0  0  0  0  0
    1.5810   15.8720    0.6900 C   0  0  0  0  0  0  0  0  0  0  0  0
   -1.0580   12.8360    0.5080 H   0  0  0  0  0  0  0  0  0  0  0  0
   -0.8420   15.0920    0.4720 H   0  0  0  0  0  0  0  0  0  0  0  0
   -0.6080   15.1660   -1.2720 H   0  0  0  0  0  0  0  0  0  0  0  0
   -1.3500   12.9540   -1.2380 H   0  0  0  0  0  0  0  0  0  0  0  0
    1.6890   14.8860   -1.1650 H   0  0  0  0  0  0  0  0  0  0  0  0
    1.2140   14.6760   -0.1960 C   0  0  1  0  0  0  0  0  0  0  0  0
    1.0560   12.6440   -1.7170 H   0  0  0  0  0  0  0  0  0  0  0  0
    1.1110   17.0330    0.1650 O   0  0  0  0  0  0  0  0  0  0  0  0
    2.2280   15.8810    1.7230 O   0  0  0  0  0  0  0  0  0  0  0  0
    1.4010   17.7330    0.7900 H   0  0  0  0  0  0  0  0  0  0  0  0
  1  5  1  0  0  0  0
  2  1  1  0  0  0  0
  3  2  2  0  0  0  0
  4  2  1  1  0  0  0
  4 10  5  0  0  0  0
  6  4  5  0  0  0  0
  6  7  5  0  0  0  0
  6 13  1  0  0  0  0
  7 12  1  0  0  0  0
  8  7  5  1  0  0  0
  8 11  1  0  0  0  0
  9  8  5  0  0  0  0
  9 15  1  0  0  0  0
 10  9  5  0  0  0  0
 10 14  1  0  0  0  0
 11 18  1  0  0  0  0
 11 26  1  6  0  0  0
 16 11  1  0  0  0  0
 17 25  1  0  0  0  0
 17 22  1  0  0  0  0
 18 17  1  0  0  0  0
 18 23  1  0  0  0  0
 19 25  1  0  0  0  0
 19 27  5  1  0  0  0
 19 31  5  0  0  0  0
 20 18  1  0  0  0  0
 21 17  1  0  0  0  0
 25 16  1  0  0  0  0
 25 24  1  1  0  0  0
 27 28  5  0  0  0  0
 27 34  1  0  0  0  0
 28 33  1  0  0  0  0
 29 28  5  6  0  0  0
 29 32  1  0  0  0  0
 30 29  5  0  0  0  0
 30 36  1  0  0  0  0
 31 30  5  0  0  0  0
 31 35  1  6  0  0  0
 32 40  1  0  0  0  0
 32 48  1  6  0  0  0
 35 37  3  0  0  0  0
 38 32  1  0  0  0  0
 39 47  1  0  0  0  0
 39 44  1  0  0  0  0
 40 39  1  0  0  0  0
 40 45  1  0  0  0  0
 41 47  1  0  0  0  0
 41 50  2  0  0  0  0
 42 40  1  0  0  0  0
 43 39  1  0  0  0  0
 47 38  1  0  0  0  0
 47 46  1  6  0  0  0
 49 41  1  0  0  0  0
 51 49  1  0  0  0  0
M  END
