
 OpenBabel11042013063D

 34 35  0  0  1  0  0  0  0  0999 V2000
    1.1100    0.2740   -0.0380 O   0  0  0  0  0  0  0  0  0  0  0  0
   -0.0180    1.0160    0.0130 C   0  0  0  0  0  0  0  0  0  0  0  0
   -1.0880    0.4270    0.0150 O   0  0  0  0  0  0  0  0  0  0  0  0
    0.1320    2.5210    0.0160 C   0  0  2  0  0  0  0  0  0  0  0  0
    1.9480    0.7330   -0.1340 H   0  0  0  0  0  0  0  0  0  0  0  0
   -1.0510    3.1890    0.0430 C   0  0  1  0  0  0  0  0  0  0  0  0
   -1.1240    4.5450   -0.0290 C   0  0  0  0  0  0  0  0  0  0  0  0
   -0.0210    5.2970   -0.1780 C   0  0  1  0  0  0  0  0  0  0  0  0
    1.1510    4.6330   -0.1530 C   0  0  0  0  0  0  0  0  0  0  0  0
    1.2750    3.2910   -0.0250 C   0  0  1  0  0  0  0  0  0  0  0  0
   -0.0870    6.8250   -0.3980 C   0  0  2  0  0  0  0  0  0  0  0  0
   -2.1170    4.9720    0.0110 H   0  0  0  0  0  0  0  0  0  0  0  0
   -2.2270    2.5290    0.1430 F   0  0  0  0  0  0  0  0  0  0  0  0
    2.7080    2.8100    0.1160 C   0  0  0  0  0  0  0  0  0  0  0  0
    2.0700    5.2220   -0.2340 H   0  0  0  0  0  0  0  0  0  0  0  0
    1.1980    7.6820   -0.1930 C   0  0  0  0  0  0  0  0  0  0  0  0
    0.7130    9.0540    0.2810 C   0  0  2  0  0  0  0  0  0  0  0  0
   -0.7310    8.8980    0.2300 N   0  0  0  0  0  0  0  0  0  0  0  0
   -1.0530    7.5360    0.4680 N   0  0  0  0  0  0  0  0  0  0  0  0
    1.1040   10.2930   -0.4370 N   0  0  0  0  0  0  0  0  0  0  0  0
   -1.9930    7.3400    0.1290 H   0  0  0  0  0  0  0  0  0  0  0  0
   -1.2370    9.6450    0.7020 H   0  0  0  0  0  0  0  0  0  0  0  0
    1.8480    7.6840   -1.0720 H   0  0  0  0  0  0  0  0  0  0  0  0
    1.1550    9.1740    1.2820 H   0  0  0  0  0  0  0  0  0  0  0  0
    1.7550    7.2410    0.6490 H   0  0  0  0  0  0  0  0  0  0  0  0
   -0.4020    6.9590   -1.4420 H   0  0  0  0  0  0  0  0  0  0  0  0
    0.5620   11.2530    0.2030 N   0  0  0  0  0  0  0  0  0  0  0  0
    0.8780   12.5180   -0.1740 C   0  0  0  0  0  0  0  0  0  0  0  0
    2.8300    2.2760    1.0640 H   0  0  0  0  0  0  0  0  0  0  0  0
    3.0490    2.1970   -0.7250 H   0  0  0  0  0  0  0  0  0  0  0  0
    3.4170    3.6490    0.1700 H   0  0  0  0  0  0  0  0  0  0  0  0
   -0.1410   13.3690    0.0650 O   0  0  0  0  0  0  0  0  0  0  0  0
    1.9420   12.9500   -0.5830 O   0  0  0  0  0  0  0  0  0  0  0  0
    0.2280   14.2410   -0.1910 H   0  0  0  0  0  0  0  0  0  0  0  0
  1  5  1  0  0  0  0
  2  1  1  0  0  0  0
  3  2  2  0  0  0  0
  4  2  1  6  0  0  0
  4 10  5  0  0  0  0
  6  4  5  0  0  0  0
  6  7  5  0  0  0  0
  6 13  1  6  0  0  0
  7 12  1  0  0  0  0
  8  7  5  6  0  0  0
  8 11  1  0  0  0  0
  9  8  5  0  0  0  0
  9 15  1  0  0  0  0
 10  9  5  0  0  0  0
 10 14  1  1  0  0  0
 11 19  1  0  0  0  0
 11 26  1  6  0  0  0
 14 29  1  0  0  0  0
 14 30  1  0  0  0  0
 14 31  1  0  0  0  0
 16 11  1  0  0  0  0
 16 23  1  0  0  0  0
 16 25  1  0  0  0  0
 17 16  1  0  0  0  0
 17 24  1  1  0  0  0
 18 17  1  0  0  0  0
 19 18  1  0  0  0  0
 20 17  1  0  0  0  0
 21 19  1  0  0  0  0
 22 18  1  0  0  0  0
 27 20  2  0  0  0  0
 28 27  1  0  0  0  0
 28 33  2  0  0  0  0
 32 28  1  0  0  0  0
 34 32  1  0  0  0  0
M  END
