
 OpenBabel11042013063D

 40 41  0  0  1  0  0  0  0  0999 V2000
    1.1780    0.1960    0.0000 O   0  0  0  0  0  0  0  0  0  0  0  0
   -0.0010    0.8480    0.0000 C   0  0  0  0  0  0  0  0  0  0  0  0
   -1.0570    0.2370    0.0000 O   0  0  0  0  0  0  0  0  0  0  0  0
    0.0620    2.3270    0.0000 C   0  0  1  0  0  0  0  0  0  0  0  0
    1.9900    0.7270   -0.0000 H   0  0  0  0  0  0  0  0  0  0  0  0
   -1.1040    3.0250   -0.0000 C   0  0  0  0  0  0  0  0  0  0  0  0
   -1.0900    4.3750    0.0000 C   0  0  0  0  0  0  0  0  0  0  0  0
    0.0960    5.0130    0.0000 C   0  0  1  0  0  0  0  0  0  0  0  0
    1.2420    4.3120    0.0000 C   0  0  0  0  0  0  0  0  0  0  0  0
    1.2320    2.9870    0.0000 C   0  0  0  0  0  0  0  0  0  0  0  0
    0.3380    6.4110    0.0000 C   0  0  0  0  0  0  0  0  0  0  0  0
   -2.0330    4.9240   -0.0000 H   0  0  0  0  0  0  0  0  0  0  0  0
   -2.0640    2.5130   -0.0000 H   0  0  0  0  0  0  0  0  0  0  0  0
    2.2120    2.5360    0.0000 H   0  0  0  0  0  0  0  0  0  0  0  0
    2.2070    4.8180    0.0000 H   0  0  0  0  0  0  0  0  0  0  0  0
   -0.4960    7.4360    0.0000 C   0  0  0  0  0  0  0  0  0  0  0  0
    0.1670    8.6980   -0.0000 C   0  0  0  0  0  0  0  0  0  0  0  0
   -1.5790    7.3570    0.0000 H   0  0  0  0  0  0  0  0  0  0  0  0
    1.3950    6.6760    0.0000 H   0  0  0  0  0  0  0  0  0  0  0  0
   -0.5780    9.7820    0.0000 C   0  0  0  0  0  0  0  0  0  0  0  0
   -0.1050   11.1230   -0.0000 C   0  0  1  0  0  0  0  0  0  0  0  0
   -1.6570    9.6390    0.0000 H   0  0  0  0  0  0  0  0  0  0  0  0
    1.2540    8.7510   -0.0000 H   0  0  0  0  0  0  0  0  0  0  0  0
   -1.1020   12.0050   -0.0000 C   0  0  0  0  0  0  0  0  0  0  0  0
   -0.8470   13.3160    0.0000 C   0  0  0  0  0  0  0  0  0  0  0  0
    0.4260   13.7650   -0.0000 C   0  0  1  0  0  0  0  0  0  0  0  0
    1.4380   12.8680   -0.0000 C   0  0  0  0  0  0  0  0  0  0  0  0
    1.1790   11.5450   -0.0000 C   0  0  0  0  0  0  0  0  0  0  0  0
    0.7250   15.1800   -0.0000 C   0  0  0  0  0  0  0  0  0  0  0  0
   -1.7230   13.9500   -0.0000 H   0  0  0  0  0  0  0  0  0  0  0  0
   -2.1440   11.6830   -0.0000 H   0  0  0  0  0  0  0  0  0  0  0  0
    2.0240   10.8570    0.0000 H   0  0  0  0  0  0  0  0  0  0  0  0
    2.4750   13.1950   -0.0000 H   0  0  0  0  0  0  0  0  0  0  0  0
   -0.2090   16.1380    0.0000 C   0  0  0  0  0  0  0  0  0  0  0  0
    0.1580   17.5460    0.0000 C   0  0  0  0  0  0  0  0  0  0  0  0
   -1.2710   15.9360   -0.0000 H   0  0  0  0  0  0  0  0  0  0  0  0
    1.7790   15.4480   -0.0000 H   0  0  0  0  0  0  0  0  0  0  0  0
   -0.9690   18.2740    0.0000 O   0  0  0  0  0  0  0  0  0  0  0  0
    1.2720   18.0270    0.0000 O   0  0  0  0  0  0  0  0  0  0  0  0
   -0.6680   19.2030   -0.0000 H   0  0  0  0  0  0  0  0  0  0  0  0
  1  5  1  0  0  0  0
  2  1  1  0  0  0  0
  3  2  2  0  0  0  0
  4  2  1  1  0  0  0
  4 10  5  0  0  0  0
  6  4  5  0  0  0  0
  6  7  5  0  0  0  0
  6 13  1  0  0  0  0
  7 12  1  0  0  0  0
  8  7  5  0  0  0  0
  8 11  1  6  0  0  0
  9  8  5  0  0  0  0
  9 15  1  0  0  0  0
 10  9  5  0  0  0  0
 10 14  1  0  0  0  0
 11 19  1  0  0  0  0
 16 11  2  0  0  0  0
 16 18  1  0  0  0  0
 17 16  1  0  0  0  0
 17 23  1  0  0  0  0
 20 17  2  0  0  0  0
 20 22  1  0  0  0  0
 21 20  1  1  0  0  0
 21 28  5  0  0  0  0
 24 21  5  0  0  0  0
 24 25  5  0  0  0  0
 24 31  1  0  0  0  0
 25 30  1  0  0  0  0
 26 25  5  0  0  0  0
 26 29  1  6  0  0  0
 27 26  5  0  0  0  0
 27 33  1  0  0  0  0
 28 27  5  0  0  0  0
 28 32  1  0  0  0  0
 29 37  1  0  0  0  0
 34 29  2  0  0  0  0
 34 36  1  0  0  0  0
 35 34  1  0  0  0  0
 35 39  2  0  0  0  0
 38 35  1  0  0  0  0
 40 38  1  0  0  0  0
M  END
