
 OpenBabel11042013063D

 26 26  0  0  1  0  0  0  0  0999 V2000
    0.1730   -0.2900   -1.0580 O   0  0  0  0  0  0  0  0  0  0  0  0
   -0.3790    0.1200    0.1050 C   0  0  0  0  0  0  0  0  0  0  0  0
   -0.7710   -0.6750    0.9400 O   0  0  0  0  0  0  0  0  0  0  0  0
   -0.4400    1.5920    0.1590 C   0  0  2  0  0  0  0  0  0  0  0  0
    0.2430   -1.2640   -0.9790 H   0  0  0  0  0  0  0  0  0  0  0  0
   -1.6400    2.2140    0.1800 C   0  0  1  0  0  0  0  0  0  0  0  0
   -1.6930    3.5690    0.1440 C   0  0  2  0  0  0  0  0  0  0  0  0
   -0.5310    4.2650    0.0350 C   0  0  1  0  0  0  0  0  0  0  0  0
    0.6840    3.6580    0.0800 C   0  0  2  0  0  0  0  0  0  0  0  0
    0.7140    2.2990    0.1860 C   0  0  1  0  0  0  0  0  0  0  0  0
   -0.6710    5.6970   -0.2750 C   0  0  0  0  0  0  0  0  0  0  0  0
   -3.6650    4.5600   -0.8080 C   0  0  0  0  0  0  0  0  0  0  0  0
   -3.1330    1.3070    0.2230 Cl  0  0  0  0  0  0  0  0  0  0  0  0
    2.4060    1.4250    0.3890 Br  0  0  0  0  0  0  0  0  0  0  0  0
    2.1160    5.6310    0.4440 C   0  0  0  0  0  0  0  0  0  0  0  0
   -4.6970    4.7250   -0.4790 H   0  0  0  0  0  0  0  0  0  0  0  0
   -3.6630    3.7640   -1.5560 H   0  0  0  0  0  0  0  0  0  0  0  0
   -3.3020    5.4970   -1.2370 H   0  0  0  0  0  0  0  0  0  0  0  0
   -2.9070    4.2250    0.3490 O   0  0  0  0  0  0  0  0  0  0  0  0
    1.4910    5.9060    1.2970 H   0  0  0  0  0  0  0  0  0  0  0  0
    1.9670    6.3040   -0.4040 H   0  0  0  0  0  0  0  0  0  0  0  0
    3.1590    5.7310    0.7600 H   0  0  0  0  0  0  0  0  0  0  0  0
    1.9180    4.2900    0.0290 O   0  0  0  0  0  0  0  0  0  0  0  0
   -1.0400    6.4480    0.7740 O   0  0  0  0  0  0  0  0  0  0  0  0
   -0.4880    6.1910   -1.3740 O   0  0  0  0  0  0  0  0  0  0  0  0
   -1.1470    7.3410    0.3850 H   0  0  0  0  0  0  0  0  0  0  0  0
  1  5  1  0  0  0  0
  2  1  1  0  0  0  0
  3  2  2  0  0  0  0
  4  2  1  6  0  0  0
  4 10  5  0  0  0  0
  6  4  5  0  0  0  0
  6  7  5  0  0  0  0
  6 13  1  6  0  0  0
  7 19  1  1  0  0  0
  8  7  5  0  0  0  0
  8 11  1  6  0  0  0
  9  8  5  0  0  0  0
  9 23  1  1  0  0  0
 10  9  5  0  0  0  0
 10 14  1  1  0  0  0
 11 25  2  0  0  0  0
 12 16  1  0  0  0  0
 12 17  1  0  0  0  0
 12 18  1  0  0  0  0
 12 19  1  0  0  0  0
 15 20  1  0  0  0  0
 15 21  1  0  0  0  0
 15 22  1  0  0  0  0
 15 23  1  0  0  0  0
 24 11  1  0  0  0  0
 26 24  1  0  0  0  0
M  END
