
 OpenBabel11042013063D

 42 43  0  0  1  0  0  0  0  0999 V2000
    1.2120    0.7000    0.0000 O   0  0  0  0  0  0  0  0  0  0  0  0
   -0.0040    1.6180    0.0000 C   0  0  0  0  0  0  0  0  0  0  0  0
   -1.2120    0.7000    0.0000 O   0  0  0  0  0  0  0  0  0  0  0  0
   -1.3320    3.2830    0.0000 C   0  0  1  0  0  0  0  0  0  0  0  0
    2.5030    0.4170    0.0000 H   0  0  0  0  0  0  0  0  0  0  0  0
   -1.7940    2.6690    0.0000 C   0  0  1  0  0  0  0  0  0  0  0  0
   -1.0220    4.3860    0.0000 C   0  0  0  0  0  0  0  0  0  0  0  0
   -0.1620    4.6550    0.0000 C   0  0  1  0  0  0  0  0  0  0  0  0
  -67.4150  -26.9840    0.0000 C   0  0  1  0  0  0  0  0  0  0  0  0
   -1.7020    3.2930    0.0000 C   0  0  2  0  0  0  0  0  0  0  0  0
   -0.0770    6.1130    0.0000 C   0  0  1  0  0  0  0  0  0  0  0  0
   -1.8770    5.0220    0.0000 H   0  0  0  0  0  0  0  0  0  0  0  0
   -1.7960    2.6690    0.0000 C   0  0  0  0  0  0  0  0  0  0  0  0
    0.2320    2.8890    0.0000 C   0  0  0  0  0  0  0  0  0  0  0  0
    2.6340    5.4580    0.0000 C   0  0  0  0  0  0  0  0  0  0  0  0
   -1.7970    2.6700    0.0000 C   0  0  0  0  0  0  0  0  0  0  0  0
   -1.7940    2.6700    0.0000 H   0  0  0  0  0  0  0  0  0  0  0  0
   -1.7970    2.6700    0.0000 H   0  0  0  0  0  0  0  0  0  0  0  0
   -1.8000    2.6690    0.0000 H   0  0  0  0  0  0  0  0  0  0  0  0
   -1.7720    2.6740    0.0000 H   0  0  0  0  0  0  0  0  0  0  0  0
   -1.8110    2.6640    0.0000 H   0  0  0  0  0  0  0  0  0  0  0  0
    1.8200    7.8100    0.0000 C   0  0  0  0  0  0  0  0  0  0  0  0
    0.8050    9.7120    0.0000 C   0  0  2  0  0  0  0  0  0  0  0  0
   -1.7110    9.6480    0.0000 N   0  0  0  0  0  0  0  0  0  0  0  0
   -2.4750    7.5410    0.0000 N   0  0  0  0  0  0  0  0  0  0  0  0
    0.9320   11.3730    0.0000 C   0  0  0  0  0  0  0  0  0  0  0  0
   -4.5340    6.8670    0.0000 H   0  0  0  0  0  0  0  0  0  0  0  0
   -4.1840   11.4830    0.0000 H   0  0  0  0  0  0  0  0  0  0  0  0
    6.5530    6.2140    0.0000 H   0  0  0  0  0  0  0  0  0  0  0  0
    6.0260    9.5150    0.0000 H   0  0  0  0  0  0  0  0  0  0  0  0
    2.8580    3.9450    0.0000 H   0  0  0  0  0  0  0  0  0  0  0  0
   -1.7290    5.5370    0.0000 H   0  0  0  0  0  0  0  0  0  0  0  0
    0.0790    2.8890    0.0000 H   0  0  0  0  0  0  0  0  0  0  0  0
    0.1690    2.8510    0.0000 H   0  0  0  0  0  0  0  0  0  0  0  0
    0.8400    2.6390    0.0000 H   0  0  0  0  0  0  0  0  0  0  0  0
    0.1640    2.9860    0.0000 O   0  0  0  0  0  0  0  0  0  0  0  0
    3.7240    6.2910    0.0000 H   0  0  0  0  0  0  0  0  0  0  0  0
    1.0300    4.7190    0.0000 H   0  0  0  0  0  0  0  0  0  0  0  0
    0.3010    4.2300    0.0000 H   0  0  0  0  0  0  0  0  0  0  0  0
   -0.7450   12.8860    0.0000 O   0  0  0  0  0  0  0  0  0  0  0  0
    2.2430   12.6620    0.0000 O   0  0  0  0  0  0  0  0  0  0  0  0
   -0.8530   14.3960    0.0000 H   0  0  0  0  0  0  0  0  0  0  0  0
  1  5  1  0  0  0  0
  2  1  1  0  0  0  0
  3  2  2  0  0  0  0
  4  2  1  1  0  0  0
  4 10  5  0  0  0  0
  6  4  5  0  0  0  0
  6  7  5  0  0  0  0
  6 13  1  6  0  0  0
  7 12  1  0  0  0  0
  8  7  5  1  0  0  0
  8 11  1  0  0  0  0
  9  8  5  0  0  0  0
  9 15  1  1  0  0  0
 10  9  5  0  0  0  0
 10 36  1  6  0  0  0
 11 25  1  0  0  0  0
 11 32  1  1  0  0  0
 13 20  1  0  0  0  0
 13 21  1  0  0  0  0
 14 33  1  0  0  0  0
 14 34  1  0  0  0  0
 14 35  1  0  0  0  0
 14 36  1  0  0  0  0
 15 37  1  0  0  0  0
 15 38  1  0  0  0  0
 15 39  1  0  0  0  0
 16 17  1  0  0  0  0
 16 18  1  0  0  0  0
 16 19  1  0  0  0  0
 16 13  1  0  0  0  0
 22 11  1  0  0  0  0
 22 29  1  0  0  0  0
 22 31  1  0  0  0  0
 23 22  1  0  0  0  0
 23 30  1  1  0  0  0
 24 23  1  0  0  0  0
 25 24  1  0  0  0  0
 26 23  1  0  0  0  0
 26 41  2  0  0  0  0
 27 25  1  0  0  0  0
 28 24  1  0  0  0  0
 40 26  1  0  0  0  0
 42 40  1  0  0  0  0
M  END
