32

O          0.82200       -0.39600       -0.16500
C         -0.36000        0.26000       -0.19900
O         -1.42100       -0.33700       -0.32100
C         -0.25900        1.75000       -0.13400
H          1.57200        0.21200        0.02100
C         -1.34500        2.46300       -0.49300
C         -1.31200        3.81000       -0.47700
C         -0.21300        4.49900       -0.06700
C          0.86400        3.75500        0.33200
C          0.84500        2.40800        0.27400
C         -0.24400        5.99300       -0.02300
H         -2.21500        4.32700       -0.79600
H         -2.25800        1.95700       -0.80800
O          2.00100        1.71700        0.63700
O          2.03600        4.29700        0.85600
H          2.52200        4.81700        0.19800
C         -1.37700        6.67800        0.28700
C         -1.39200        8.02400        0.37200
C         -0.26200        8.72800        0.17300
C          0.86400        8.07900       -0.16100
C          0.85800        6.74200       -0.28900
C         -0.26100       10.14400        0.26400
H         -2.32100        8.53700        0.60900
H         -2.31500        6.16300        0.48100
H          1.78500        6.30000       -0.61800
H          1.78700        8.62700       -0.34000
C         -0.28800       11.34400        0.25000
C         -0.39100       12.76300        0.12900
H          2.66400        2.36300        0.95800
O         -1.66200       13.19900        0.04300
O          0.56800       13.51100        0.06000
H         -1.57200       14.15800       -0.09700
