
 OpenBabel11042013063D

 28 29  0  0  1  0  0  0  0  0999 V2000
    1.2030    0.0790    0.2160 O   0  0  0  0  0  0  0  0  0  0  0  0
    0.0130    0.7160    0.2270 C   0  0  0  0  0  0  0  0  0  0  0  0
   -1.0330    0.1070    0.4020 O   0  0  0  0  0  0  0  0  0  0  0  0
    0.0620    2.1860   -0.0100 C   0  0  1  0  0  0  0  0  0  0  0  0
    1.9870    0.6490    0.0940 H   0  0  0  0  0  0  0  0  0  0  0  0
   -1.1150    2.8170   -0.2150 C   0  0  0  0  0  0  0  0  0  0  0  0
   -1.1450    4.1460   -0.4060 C   0  0  0  0  0  0  0  0  0  0  0  0
   -0.0030    4.8680   -0.3970 C   0  0  2  0  0  0  0  0  0  0  0  0
    1.1810    4.2410   -0.2000 C   0  0  2  0  0  0  0  0  0  0  0  0
    1.2020    2.9050   -0.0080 C   0  0  1  0  0  0  0  0  0  0  0  0
   -0.1120    6.2820   -0.4850 C   0  0  0  0  0  0  0  0  0  0  0  0
   -2.1070    4.6400   -0.5480 H   0  0  0  0  0  0  0  0  0  0  0  0
   -2.0550    2.2650   -0.2070 H   0  0  0  0  0  0  0  0  0  0  0  0
    2.3850    2.2850    0.2140 F   0  0  0  0  0  0  0  0  0  0  0  0
    2.6860    5.1160   -0.1510 Cl  0  0  0  0  0  0  0  0  0  0  0  0
   -0.2550    7.4590   -0.2910 C   0  0  0  0  0  0  0  0  0  0  0  0
   -0.4450    8.7880    0.2680 C   0  0  1  0  0  0  0  0  0  0  0  0
    0.7340    9.7060    0.1520 C   0  0  0  0  0  0  0  0  0  0  0  0
    0.0300   10.9450   -0.0250 N   0  0  0  0  0  0  0  0  0  0  0  0
   -1.2470   10.7530   -0.4680 N   0  0  0  0  0  0  0  0  0  0  0  0
   -1.5060    9.5160   -0.4540 N   0  0  0  0  0  0  0  0  0  0  0  0
    0.6050   12.1780    0.0770 C   0  0  0  0  0  0  0  0  0  0  0  0
    1.3580    9.5360   -0.7330 H   0  0  0  0  0  0  0  0  0  0  0  0
    1.3650    9.7220    1.0450 H   0  0  0  0  0  0  0  0  0  0  0  0
   -0.7560    8.6920    1.3150 H   0  0  0  0  0  0  0  0  0  0  0  0
   -0.2560   13.2020   -0.0880 O   0  0  0  0  0  0  0  0  0  0  0  0
    1.7800   12.4060    0.3220 O   0  0  0  0  0  0  0  0  0  0  0  0
    0.3030   13.9950    0.0310 H   0  0  0  0  0  0  0  0  0  0  0  0
  1  5  1  0  0  0  0
  2  1  1  0  0  0  0
  3  2  2  0  0  0  0
  4  2  1  1  0  0  0
  4 10  5  0  0  0  0
  6  4  5  0  0  0  0
  6  7  5  0  0  0  0
  6 13  1  0  0  0  0
  7 12  1  0  0  0  0
  8  7  5  0  0  0  0
  8 11  1  1  0  0  0
  9  8  5  0  0  0  0
  9 15  1  1  0  0  0
 10  9  5  0  0  0  0
 10 14  1  1  0  0  0
 16 11  3  0  0  0  0
 17 16  1  0  0  0  0
 17 21  1  0  0  0  0
 17 25  1  1  0  0  0
 18 17  1  0  0  0  0
 18 23  1  0  0  0  0
 18 24  1  0  0  0  0
 19 18  1  0  0  0  0
 20 19  1  0  0  0  0
 21 20  2  0  0  0  0
 22 19  1  0  0  0  0
 22 27  2  0  0  0  0
 26 22  1  0  0  0  0
 28 26  1  0  0  0  0
M  END
