28

O          1.20300        0.07900        0.21600
C          0.01300        0.71600        0.22700
O         -1.03300        0.10700        0.40200
C          0.06200        2.18600       -0.01000
H          1.98700        0.64900        0.09400
C         -1.11500        2.81700       -0.21500
C         -1.14500        4.14600       -0.40600
C         -0.00300        4.86800       -0.39700
C          1.18100        4.24100       -0.20000
C          1.20200        2.90500       -0.00800
C         -0.11200        6.28200       -0.48500
H         -2.10700        4.64000       -0.54800
H         -2.05500        2.26500       -0.20700
F          2.38500        2.28500        0.21400
Cl         2.68600        5.11600       -0.15100
C         -0.25500        7.45900       -0.29100
C         -0.44500        8.78800        0.26800
C          0.73400        9.70600        0.15200
N          0.03000       10.94500       -0.02500
N         -1.24700       10.75300       -0.46800
N         -1.50600        9.51600       -0.45400
C          0.60500       12.17800        0.07700
H          1.35800        9.53600       -0.73300
H          1.36500        9.72200        1.04500
H         -0.75600        8.69200        1.31500
O         -0.25600       13.20200       -0.08800
O          1.78000       12.40600        0.32200
H          0.30300       13.99500        0.03100
