
 OpenBabel11042013063D

 22 22  0  0  1  0  0  0  0  0999 V2000
    0.9010    0.2970    0.1350 O   0  0  0  0  0  0  0  0  0  0  0  0
   -0.2890    0.9380    0.0640 C   0  0  0  0  0  0  0  0  0  0  0  0
   -1.3300    0.3020    0.0030 O   0  0  0  0  0  0  0  0  0  0  0  0
   -0.1990    2.4400    0.0440 C   0  0  2  0  0  0  0  0  0  0  0  0
    1.6430    0.9220    0.2990 H   0  0  0  0  0  0  0  0  0  0  0  0
   -1.3580    3.1250   -0.0860 C   0  0  1  0  0  0  0  0  0  0  0  0
   -1.3780    4.4750   -0.1510 C   0  0  1  0  0  0  0  0  0  0  0  0
   -0.2230    5.1830   -0.0630 C   0  0  1  0  0  0  0  0  0  0  0  0
    0.9280    4.4930    0.1000 C   0  0  0  0  0  0  0  0  0  0  0  0
    0.9560    3.1460    0.1300 C   0  0  2  0  0  0  0  0  0  0  0  0
   -0.1240    6.5440   -0.2590 N   0  0  0  0  0  0  0  0  0  0  0  0
   -2.9020    5.2780   -0.4050 Cl  0  0  0  0  0  0  0  0  0  0  0  0
   -2.5350    2.4650   -0.2010 F   0  0  0  0  0  0  0  0  0  0  0  0
    2.2480    2.5010    0.1840 N   0  0  0  0  0  0  0  0  0  0  0  0
    1.8540    5.0630    0.1580 H   0  0  0  0  0  0  0  0  0  0  0  0
   -0.5530    7.3020    0.6370 N   0  0  0  0  0  0  0  0  0  0  0  0
   -0.2920    8.6030    0.2810 C   0  0  0  0  0  0  0  0  0  0  0  0
    2.9680    3.1410    0.5410 H   0  0  0  0  0  0  0  0  0  0  0  0
    2.5730    2.3610   -0.7850 H   0  0  0  0  0  0  0  0  0  0  0  0
   -1.4190    9.3330    0.1530 O   0  0  0  0  0  0  0  0  0  0  0  0
    0.7970    9.1220    0.0670 O   0  0  0  0  0  0  0  0  0  0  0  0
   -1.0820   10.2020   -0.1430 H   0  0  0  0  0  0  0  0  0  0  0  0
  1  5  1  0  0  0  0
  2  1  1  0  0  0  0
  3  2  2  0  0  0  0
  4  2  1  6  0  0  0
  4 10  5  0  0  0  0
  6  4  5  0  0  0  0
  6  7  5  0  0  0  0
  6 13  1  6  0  0  0
  7 12  1  6  0  0  0
  8  7  5  0  0  0  0
  8 11  1  6  0  0  0
  9  8  5  0  0  0  0
  9 15  1  0  0  0  0
 10  9  5  0  0  0  0
 10 14  1  6  0  0  0
 14 18  1  0  0  0  0
 14 19  1  0  0  0  0
 16 11  2  0  0  0  0
 17 16  1  0  0  0  0
 17 21  2  0  0  0  0
 20 17  1  0  0  0  0
 22 20  1  0  0  0  0
M  END
