
 OpenBabel11042013063D

 35 36  0  0  1  0  0  0  0  0999 V2000
    0.5160    0.5170    0.3090 O   0  0  0  0  0  0  0  0  0  0  0  0
   -0.5050    1.2910   -0.1210 C   0  0  0  0  0  0  0  0  0  0  0  0
   -1.5660    0.8070   -0.4890 O   0  0  0  0  0  0  0  0  0  0  0  0
   -0.2350    2.7680   -0.0680 C   0  0  1  0  0  0  0  0  0  0  0  0
    1.2780    1.0650    0.6080 H   0  0  0  0  0  0  0  0  0  0  0  0
   -1.3240    3.5640   -0.1970 C   0  0  0  0  0  0  0  0  0  0  0  0
   -1.2060    4.9030   -0.1280 C   0  0  0  0  0  0  0  0  0  0  0  0
   -0.0050    5.4900    0.0730 C   0  0  2  0  0  0  0  0  0  0  0  0
    1.0760    4.6870    0.2100 C   0  0  0  0  0  0  0  0  0  0  0  0
    0.9750    3.3440    0.1260 C   0  0  1  0  0  0  0  0  0  0  0  0
    0.1330    6.8570    0.1940 N   0  0  0  0  0  0  0  0  0  0  0  0
   -2.0970    5.5210   -0.2250 H   0  0  0  0  0  0  0  0  0  0  0  0
   -2.3130    3.1330   -0.3490 H   0  0  0  0  0  0  0  0  0  0  0  0
    2.1790    2.5550    0.2510 N   0  0  0  0  0  0  0  0  0  0  0  0
    2.0390    5.1610    0.3800 H   0  0  0  0  0  0  0  0  0  0  0  0
   -0.1360    7.5300   -0.8260 N   0  0  0  0  0  0  0  0  0  0  0  0
   -0.0050    8.8380   -0.5430 C   0  0  0  0  0  0  0  0  0  0  0  0
    0.0820    9.9940   -0.2180 C   0  0  0  0  0  0  0  0  0  0  0  0
    0.1130   11.3330    0.3630 C   0  0  1  0  0  0  0  0  0  0  0  0
    1.2930   12.1990   -0.0260 C   0  0  0  0  0  0  0  0  0  0  0  0
    0.8280   13.5660    0.4580 C   0  0  2  0  0  0  0  0  0  0  0  0
   -0.6580   13.5240    0.3540 N   0  0  0  0  0  0  0  0  0  0  0  0
   -0.9990   12.1760   -0.0860 N   0  0  0  0  0  0  0  0  0  0  0  0
    1.4240   14.7400   -0.3050 C   0  0  0  0  0  0  0  0  0  0  0  0
   -1.8710   11.8480    0.3390 H   0  0  0  0  0  0  0  0  0  0  0  0
   -0.9580   14.2370   -0.3260 H   0  0  0  0  0  0  0  0  0  0  0  0
    2.2190   11.8850    0.4660 H   0  0  0  0  0  0  0  0  0  0  0  0
    1.0820   13.7050    1.5150 H   0  0  0  0  0  0  0  0  0  0  0  0
    1.4720   12.1920   -1.1100 H   0  0  0  0  0  0  0  0  0  0  0  0
    0.0750   11.2360    1.4570 H   0  0  0  0  0  0  0  0  0  0  0  0
    2.9880    3.1270    0.5080 H   0  0  0  0  0  0  0  0  0  0  0  0
    2.4290    2.1650   -0.6670 H   0  0  0  0  0  0  0  0  0  0  0  0
    0.5510   15.7540   -0.5080 O   0  0  0  0  0  0  0  0  0  0  0  0
    2.5880   14.8570   -0.6540 O   0  0  0  0  0  0  0  0  0  0  0  0
    1.0930   16.4660   -0.9080 H   0  0  0  0  0  0  0  0  0  0  0  0
  1  5  1  0  0  0  0
  2  1  1  0  0  0  0
  3  2  2  0  0  0  0
  4  2  1  1  0  0  0
  4 10  5  0  0  0  0
  6  4  5  0  0  0  0
  6  7  5  0  0  0  0
  6 13  1  0  0  0  0
  7 12  1  0  0  0  0
  8  7  5  0  0  0  0
  8 11  1  1  0  0  0
  9  8  5  0  0  0  0
  9 15  1  0  0  0  0
 10  9  5  0  0  0  0
 10 14  1  1  0  0  0
 14 31  1  0  0  0  0
 14 32  1  0  0  0  0
 16 11  2  0  0  0  0
 17 16  1  0  0  0  0
 18 17  3  0  0  0  0
 19 18  1  0  0  0  0
 19 23  1  0  0  0  0
 19 30  1  1  0  0  0
 20 19  1  0  0  0  0
 20 27  1  0  0  0  0
 20 29  1  0  0  0  0
 21 20  1  0  0  0  0
 21 28  1  1  0  0  0
 22 21  1  0  0  0  0
 23 22  1  0  0  0  0
 24 21  1  0  0  0  0
 24 34  2  0  0  0  0
 25 23  1  0  0  0  0
 26 22  1  0  0  0  0
 33 24  1  0  0  0  0
 35 33  1  0  0  0  0
M  END
