35

O          0.51600        0.51700        0.30900
C         -0.50500        1.29100       -0.12100
O         -1.56600        0.80700       -0.48900
C         -0.23500        2.76800       -0.06800
H          1.27800        1.06500        0.60800
C         -1.32400        3.56400       -0.19700
C         -1.20600        4.90300       -0.12800
C         -0.00500        5.49000        0.07300
C          1.07600        4.68700        0.21000
C          0.97500        3.34400        0.12600
N          0.13300        6.85700        0.19400
H         -2.09700        5.52100       -0.22500
H         -2.31300        3.13300       -0.34900
N          2.17900        2.55500        0.25100
H          2.03900        5.16100        0.38000
N         -0.13600        7.53000       -0.82600
C         -0.00500        8.83800       -0.54300
C          0.08200        9.99400       -0.21800
C          0.11300       11.33300        0.36300
C          1.29300       12.19900       -0.02600
C          0.82800       13.56600        0.45800
N         -0.65800       13.52400        0.35400
N         -0.99900       12.17600       -0.08600
C          1.42400       14.74000       -0.30500
H         -1.87100       11.84800        0.33900
H         -0.95800       14.23700       -0.32600
H          2.21900       11.88500        0.46600
H          1.08200       13.70500        1.51500
H          1.47200       12.19200       -1.11000
H          0.07500       11.23600        1.45700
H          2.98800        3.12700        0.50800
H          2.42900        2.16500       -0.66700
O          0.55100       15.75400       -0.50800
O          2.58800       14.85700       -0.65400
H          1.09300       16.46600       -0.90800
