32

O          1.20300        0.79900        0.06200
C          0.05400        1.49100       -0.06800
O         -1.00900        0.91700       -0.27700
C          0.14300        2.97300        0.08200
H          2.00600        1.33700        0.21100
C         -1.00300        3.70000        0.15800
C         -0.92800        5.04100        0.28900
C          0.26100        5.67900        0.32300
C          1.39200        4.95400        0.23900
C          1.32700        3.61700        0.12500
C          0.31900        7.10200        0.36000
H         -1.85500        5.61100        0.34200
O         -2.27000        3.14000        0.08700
F          2.49000        2.93200        0.03400
H          2.36400        5.43900        0.24400
C          0.31800        8.29400        0.19600
C          0.21500        9.66600       -0.30600
H         -2.24900        2.18200       -0.12800
C          1.35200       10.61400        0.00800
C          0.74400       11.93500       -0.45400
N         -0.72300       11.77700       -0.23200
N         -0.91500       10.41300        0.25200
C          1.28900       13.18400        0.22300
H         -1.79300       10.01000       -0.08500
H         -1.03100       12.47800        0.45500
H          2.26500       10.36800       -0.54200
H          0.90400       12.06300       -1.53100
H          1.59800       10.63000        1.07900
H          0.09300        9.59900       -1.39800
O          0.35800       14.15500        0.37800
O          2.45200       13.39800        0.52400
H          0.86000       14.93500        0.69400
