
 OpenBabel11042013063D

 33 33  0  0  1  0  0  0  0  0999 V2000
    0.9740    1.1810   -1.3060 O   0  0  0  0  0  0  0  0  0  0  0  0
    0.2880    2.2130   -1.8240 C   0  0  0  0  0  0  0  0  0  0  0  0
   -0.2380    2.2000   -2.9260 O   0  0  0  0  0  0  0  0  0  0  0  0
    0.3050    3.4030   -0.9290 C   0  0  1  0  0  0  0  0  0  0  0  0
    1.2950    1.3500   -0.3990 H   0  0  0  0  0  0  0  0  0  0  0  0
   -0.8070    3.6650   -0.2060 C   0  0  2  0  0  0  0  0  0  0  0  0
   -0.8220    4.7770    0.5690 C   0  0  2  0  0  0  0  0  0  0  0  0
    0.2750    5.5720    0.6520 C   0  0  1  0  0  0  0  0  0  0  0  0
    1.4530    5.1860    0.0720 C   0  0  2  0  0  0  0  0  0  0  0  0
    1.4370    4.1490   -0.8170 C   0  0  2  0  0  0  0  0  0  0  0  0
    0.1860    6.8870    1.3730 C   0  0  0  0  0  0  0  0  0  0  0  0
   -1.9940    5.0450    1.3510 N   0  0  0  0  0  0  0  0  0  0  0  0
   -2.8940    3.0680   -1.1340 C   0  0  0  0  0  0  0  0  0  0  0  0
    2.6280    3.8310   -1.7150 C   0  0  0  0  0  0  0  0  0  0  0  0
    2.7860    5.8160    0.5000 C   0  0  0  0  0  0  0  0  0  0  0  0
   -3.3580    4.0370   -0.9290 H   0  0  0  0  0  0  0  0  0  0  0  0
   -2.5190    3.0430   -2.1590 H   0  0  0  0  0  0  0  0  0  0  0  0
   -3.6650    2.2980   -1.0320 H   0  0  0  0  0  0  0  0  0  0  0  0
   -1.8700    2.7670   -0.1870 O   0  0  0  0  0  0  0  0  0  0  0  0
    3.1240    5.4390    1.9570 C   0  0  0  0  0  0  0  0  0  0  0  0
    2.9510    6.2730    2.6420 H   0  0  0  0  0  0  0  0  0  0  0  0
    4.1810    5.1740    2.0550 H   0  0  0  0  0  0  0  0  0  0  0  0
    2.5370    4.5840    2.3160 H   0  0  0  0  0  0  0  0  0  0  0  0
    3.6240    5.4300   -0.0860 H   0  0  0  0  0  0  0  0  0  0  0  0
    2.8040    6.8980    0.3390 H   0  0  0  0  0  0  0  0  0  0  0  0
    3.2390    4.7150   -1.9240 H   0  0  0  0  0  0  0  0  0  0  0  0
    2.3040    3.5080   -2.7120 H   0  0  0  0  0  0  0  0  0  0  0  0
    3.2590    3.0530   -1.2770 H   0  0  0  0  0  0  0  0  0  0  0  0
   -2.8210    4.5110    1.1130 H   0  0  0  0  0  0  0  0  0  0  0  0
   -2.1920    6.0340    1.4970 H   0  0  0  0  0  0  0  0  0  0  0  0
   -0.9670    7.5420    1.0940 O   0  0  0  0  0  0  0  0  0  0  0  0
    1.0380    7.4660    2.0200 O   0  0  0  0  0  0  0  0  0  0  0  0
   -0.8280    8.4170    1.5140 H   0  0  0  0  0  0  0  0  0  0  0  0
  1  5  1  0  0  0  0
  2  1  1  0  0  0  0
  3  2  2  0  0  0  0
  4  2  1  1  0  0  0
  4 10  5  0  0  0  0
  6  4  5  0  0  0  0
  6  7  5  0  0  0  0
  6 19  1  1  0  0  0
  7 12  1  1  0  0  0
  8  7  5  0  0  0  0
  8 11  1  6  0  0  0
  9  8  5  0  0  0  0
  9 15  1  1  0  0  0
 10  9  5  0  0  0  0
 10 14  1  6  0  0  0
 11 32  2  0  0  0  0
 12 29  1  0  0  0  0
 12 30  1  0  0  0  0
 13 16  1  0  0  0  0
 13 17  1  0  0  0  0
 13 18  1  0  0  0  0
 13 19  1  0  0  0  0
 14 26  1  0  0  0  0
 14 27  1  0  0  0  0
 14 28  1  0  0  0  0
 15 24  1  0  0  0  0
 15 25  1  0  0  0  0
 20 21  1  0  0  0  0
 20 22  1  0  0  0  0
 20 23  1  0  0  0  0
 20 15  1  0  0  0  0
 31 11  1  0  0  0  0
 33 31  1  0  0  0  0
M  END
