
 OpenBabel11042013063D

 24 24  0  0  1  0  0  0  0  0999 V2000
    1.6520    0.7380    0.1210 O   0  0  0  0  0  0  0  0  0  0  0  0
    0.4290    1.1480   -0.2860 C   0  0  0  0  0  0  0  0  0  0  0  0
   -0.3840    0.3550   -0.7370 O   0  0  0  0  0  0  0  0  0  0  0  0
    0.1640    2.6070   -0.1280 C   0  0  2  0  0  0  0  0  0  0  0  0
    2.2990    1.4450    0.3070 H   0  0  0  0  0  0  0  0  0  0  0  0
   -1.0370    3.0920    0.2760 C   0  0  2  0  0  0  0  0  0  0  0  0
   -1.2550    4.4400    0.3410 C   0  0  2  0  0  0  0  0  0  0  0  0
   -0.2200    5.2670    0.0140 C   0  0  2  0  0  0  0  0  0  0  0  0
    0.9900    4.7980   -0.3640 C   0  0  1  0  0  0  0  0  0  0  0  0
    1.1570    3.4610   -0.4370 C   0  0  1  0  0  0  0  0  0  0  0  0
   -0.3940    6.7330    0.0830 C   0  0  0  0  0  0  0  0  0  0  0  0
   -2.6040    5.0140    0.7980 C   0  0  0  0  0  0  0  0  0  0  0  0
   -2.3090    1.9940    0.7650 Cl  0  0  0  0  0  0  0  0  0  0  0  0
    2.3610    2.9660   -0.8120 F   0  0  0  0  0  0  0  0  0  0  0  0
    2.4580    5.9070   -0.8040 Br  0  0  0  0  0  0  0  0  0  0  0  0
   -3.7460    4.8080   -0.1970 C   0  0  0  0  0  0  0  0  0  0  0  0
   -3.3910    4.6770   -1.2240 H   0  0  0  0  0  0  0  0  0  0  0  0
   -4.3460    3.9340    0.0740 H   0  0  0  0  0  0  0  0  0  0  0  0
   -4.4230    5.6690   -0.1790 H   0  0  0  0  0  0  0  0  0  0  0  0
   -2.8750    4.5920    1.7740 H   0  0  0  0  0  0  0  0  0  0  0  0
   -2.5330    6.0880    0.9970 H   0  0  0  0  0  0  0  0  0  0  0  0
   -1.1370    7.1890   -0.9420 O   0  0  0  0  0  0  0  0  0  0  0  0
    0.0490    7.4720    0.9440 O   0  0  0  0  0  0  0  0  0  0  0  0
   -1.1900    8.1570   -0.7920 H   0  0  0  0  0  0  0  0  0  0  0  0
  1  5  1  0  0  0  0
  2  1  1  0  0  0  0
  3  2  2  0  0  0  0
  4  2  1  6  0  0  0
  4 10  5  0  0  0  0
  6  4  5  0  0  0  0
  6  7  5  0  0  0  0
  6 13  1  1  0  0  0
  7 12  1  1  0  0  0
  8  7  5  0  0  0  0
  8 11  1  1  0  0  0
  9  8  5  0  0  0  0
  9 15  1  6  0  0  0
 10  9  5  0  0  0  0
 10 14  1  1  0  0  0
 11 23  2  0  0  0  0
 12 20  1  0  0  0  0
 12 21  1  0  0  0  0
 16 17  1  0  0  0  0
 16 18  1  0  0  0  0
 16 19  1  0  0  0  0
 16 12  1  0  0  0  0
 22 11  1  0  0  0  0
 24 22  1  0  0  0  0
M  END
