
 OpenBabel11042013063D

 28 28  0  0  1  0  0  0  0  0999 V2000
    1.2690    0.6820    0.0080 O   0  0  0  0  0  0  0  0  0  0  0  0
   -0.0410    1.2450    0.0490 C   0  0  0  0  0  0  0  0  0  0  0  0
   -0.9170    0.2160    0.0010 O   0  0  0  0  0  0  0  0  0  0  0  0
   -0.1140    3.2010   -0.0330 C   0  0  1  0  0  0  0  0  0  0  0  0
    2.4390    0.4430   -0.0010 H   0  0  0  0  0  0  0  0  0  0  0  0
   -0.6170    2.4930    0.0210 C   0  0  1  0  0  0  0  0  0  0  0  0
   -0.9340    3.9950   -0.0030 C   0  0  2  0  0  0  0  0  0  0  0  0
   -0.3240    4.9250   -0.0020 C   0  0  2  0  0  0  0  0  0  0  0  0
    0.7900    4.6860    0.0040 C   0  0  2  0  0  0  0  0  0  0  0  0
    1.0680    3.4660    0.0230 C   0  0  2  0  0  0  0  0  0  0  0  0
   -0.0600    6.3060   -0.0010 C   0  0  0  0  0  0  0  0  0  0  0  0
   -2.5850    5.3160   -0.0000 C   0  0  0  0  0  0  0  0  0  0  0  0
   -1.7990    2.6700    0.0000 C   0  0  0  0  0  0  0  0  0  0  0  0
    0.8790    2.5710   -0.6030 O   0  0  0  0  0  0  0  0  0  0  0  0
    1.7160    3.8410    0.0330 F   0  0  0  0  0  0  0  0  0  0  0  0
    0.9130    2.5870    0.5820 H   0  0  0  0  0  0  0  0  0  0  0  0
   -3.7810    5.9500   -0.0000 H   0  0  0  0  0  0  0  0  0  0  0  0
   -1.5860    5.3670    0.0000 H   0  0  0  0  0  0  0  0  0  0  0  0
   -2.9900    4.2930    0.0000 H   0  0  0  0  0  0  0  0  0  0  0  0
   -1.8040    2.6700    0.0000 C   0  0  0  0  0  0  0  0  0  0  0  0
   -2.3150    3.1160    0.2160 H   0  0  0  0  0  0  0  0  0  0  0  0
   -1.8060    2.6700    0.0000 H   0  0  0  0  0  0  0  0  0  0  0  0
   -2.4750    3.0840   -0.1420 H   0  0  0  0  0  0  0  0  0  0  0  0
   -1.5210    1.5600   -0.0000 H   0  0  0  0  0  0  0  0  0  0  0  0
   -2.6770    1.7360    0.0000 H   0  0  0  0  0  0  0  0  0  0  0  0
   -1.5630    7.3660    0.0000 O   0  0  0  0  0  0  0  0  0  0  0  0
    1.1550    7.0550    0.0000 O   0  0  0  0  0  0  0  0  0  0  0  0
   -1.7930    8.7560   -0.0000 H   0  0  0  0  0  0  0  0  0  0  0  0
  1  5  1  0  0  0  0
  2  1  1  0  0  0  0
  3  2  2  0  0  0  0
  4  2  1  6  0  0  0
  4 10  5  0  0  0  0
  6  4  5  0  0  0  0
  6  7  5  0  0  0  0
  6 13  1  6  0  0  0
  7 12  1  1  0  0  0
  8  7  5  0  0  0  0
  8 11  1  1  0  0  0
  9  8  5  0  0  0  0
  9 15  1  1  0  0  0
 10  9  5  0  0  0  0
 10 14  1  6  0  0  0
 11 27  2  0  0  0  0
 12 17  1  0  0  0  0
 12 18  1  0  0  0  0
 12 19  1  0  0  0  0
 13 24  1  0  0  0  0
 13 25  1  0  0  0  0
 14 16  1  0  0  0  0
 20 21  1  0  0  0  0
 20 22  1  0  0  0  0
 20 23  1  0  0  0  0
 20 13  1  0  0  0  0
 26 11  1  0  0  0  0
 28 26  1  0  0  0  0
M  END
