
 OpenBabel11042013063D

 26 27  0  0  1  0  0  0  0  0999 V2000
    1.6000   -0.0460   -0.0380 O   0  0  0  0  0  0  0  0  0  0  0  0
    0.3690    0.4970   -0.1710 C   0  0  0  0  0  0  0  0  0  0  0  0
   -0.6140   -0.2140   -0.2990 O   0  0  0  0  0  0  0  0  0  0  0  0
    0.3260    1.9890   -0.1300 C   0  0  2  0  0  0  0  0  0  0  0  0
    2.3320    0.5390    0.2150 H   0  0  0  0  0  0  0  0  0  0  0  0
   -0.8580    2.5690    0.1410 C   0  0  2  0  0  0  0  0  0  0  0  0
   -0.9520    3.9070    0.2200 C   0  0  2  0  0  0  0  0  0  0  0  0
    0.1120    4.7350    0.0460 C   0  0  2  0  0  0  0  0  0  0  0  0
    1.2950    4.1350   -0.2540 C   0  0  2  0  0  0  0  0  0  0  0  0
    1.3930    2.7870   -0.3500 C   0  0  0  0  0  0  0  0  0  0  0  0
   -0.1700    6.2140    0.2930 C   0  0  1  0  0  0  0  0  0  0  0  0
   -2.1610    4.4310    0.5280 F   0  0  0  0  0  0  0  0  0  0  0  0
   -1.9700    1.8420    0.3620 F   0  0  0  0  0  0  0  0  0  0  0  0
    2.3590    2.3610   -0.6070 H   0  0  0  0  0  0  0  0  0  0  0  0
    2.7810    5.0000   -0.4870 Cl  0  0  0  0  0  0  0  0  0  0  0  0
    0.8550    7.3220    0.2070 C   0  0  0  0  0  0  0  0  0  0  0  0
   -0.0340    8.4270   -0.0370 N   0  0  0  0  0  0  0  0  0  0  0  0
   -1.1940    8.0170   -0.6230 N   0  0  0  0  0  0  0  0  0  0  0  0
   -1.2350    6.7530   -0.6030 N   0  0  0  0  0  0  0  0  0  0  0  0
    0.2900    9.7410    0.1400 C   0  0  0  0  0  0  0  0  0  0  0  0
    1.5140    7.2800   -0.6640 H   0  0  0  0  0  0  0  0  0  0  0  0
    1.4360    7.4650    1.1220 H   0  0  0  0  0  0  0  0  0  0  0  0
   -0.5830    6.2620    1.3140 H   0  0  0  0  0  0  0  0  0  0  0  0
   -0.7150   10.5990   -0.1270 O   0  0  0  0  0  0  0  0  0  0  0  0
    1.3650   10.1710    0.5330 O   0  0  0  0  0  0  0  0  0  0  0  0
   -0.3340   11.4760    0.0760 H   0  0  0  0  0  0  0  0  0  0  0  0
  1  5  1  0  0  0  0
  2  1  1  0  0  0  0
  3  2  2  0  0  0  0
  4  2  1  6  0  0  0
  4 10  5  0  0  0  0
  6  4  5  0  0  0  0
  6  7  5  0  0  0  0
  6 13  1  1  0  0  0
  7 12  1  1  0  0  0
  8  7  5  0  0  0  0
  8 11  1  1  0  0  0
  9  8  5  0  0  0  0
  9 15  1  1  0  0  0
 10  9  5  0  0  0  0
 10 14  1  0  0  0  0
 11 19  1  0  0  0  0
 11 23  1  1  0  0  0
 16 11  1  0  0  0  0
 16 21  1  0  0  0  0
 16 22  1  0  0  0  0
 17 16  1  0  0  0  0
 18 17  1  0  0  0  0
 19 18  2  0  0  0  0
 20 17  1  0  0  0  0
 20 25  2  0  0  0  0
 24 20  1  0  0  0  0
 26 24  1  0  0  0  0
M  END
