
 OpenBabel11042013033D

 33 34  0  0  1  0  0  0  0  0999 V2000
    1.0170    0.4720    0.3920 O   0  0  0  0  0  0  0  0  0  0  0  0
   -0.0640    1.1840    0.0210 C   0  0  0  0  0  0  0  0  0  0  0  0
   -1.1110    0.5760   -0.1640 O   0  0  0  0  0  0  0  0  0  0  0  0
    0.0370    2.7030   -0.0840 C   0  0  2  0  0  0  0  0  0  0  0  0
    1.9300    0.8150    0.4230 H   0  0  0  0  0  0  0  0  0  0  0  0
   -1.1170    3.4210    0.0500 C   0  0  1  0  0  0  0  0  0  0  0  0
   -1.0640    4.7710   -0.0130 C   0  0  0  0  0  0  0  0  0  0  0  0
    0.0590    5.4860   -0.2790 C   0  0  1  0  0  0  0  0  0  0  0  0
    1.1930    4.7520   -0.4860 C   0  0  1  0  0  0  0  0  0  0  0  0
    1.1730    3.3900   -0.3700 C   0  0  2  0  0  0  0  0  0  0  0  0
   -0.0650    7.0380   -0.3920 C   0  0  2  0  0  0  0  0  0  0  0  0
   -2.0060    5.3020    0.1220 H   0  0  0  0  0  0  0  0  0  0  0  0
   -2.4970    2.8090    0.2500 C   0  0  0  0  0  0  0  0  0  0  0  0
    2.3820    2.6690   -0.5820 C   0  0  0  0  0  0  0  0  0  0  0  0
    2.8250    5.5870   -1.0360 Br  0  0  0  0  0  0  0  0  0  0  0  0
    1.0820    7.9630    0.0660 C   0  0  0  0  0  0  0  0  0  0  0  0
    0.4330    9.2500    0.5700 C   0  0  2  0  0  0  0  0  0  0  0  0
   -0.9870    9.0600    0.2430 N   0  0  0  0  0  0  0  0  0  0  0  0
   -1.2030    7.6400    0.3530 N   0  0  0  0  0  0  0  0  0  0  0  0
    0.9640   10.5300   -0.0730 C   0  0  0  0  0  0  0  0  0  0  0  0
   -2.0800    7.3880   -0.1090 H   0  0  0  0  0  0  0  0  0  0  0  0
   -1.5590    9.6290    0.8750 H   0  0  0  0  0  0  0  0  0  0  0  0
    1.7520    8.1750   -0.7730 H   0  0  0  0  0  0  0  0  0  0  0  0
    0.5710    9.3430    1.6540 H   0  0  0  0  0  0  0  0  0  0  0  0
    1.6580    7.5170    0.8860 H   0  0  0  0  0  0  0  0  0  0  0  0
   -0.2430    7.2340   -1.4600 H   0  0  0  0  0  0  0  0  0  0  0  0
   -3.2630    3.5600    0.4770 H   0  0  0  0  0  0  0  0  0  0  0  0
   -2.5240    2.0930    1.0770 H   0  0  0  0  0  0  0  0  0  0  0  0
   -2.8190    2.3210   -0.6790 H   0  0  0  0  0  0  0  0  0  0  0  0
    3.3100    1.9710   -0.6440 N   0  0  0  0  0  0  0  0  0  0  0  0
    0.0920   11.5640   -0.0040 O   0  0  0  0  0  0  0  0  0  0  0  0
    2.0790   10.7070   -0.5390 O   0  0  0  0  0  0  0  0  0  0  0  0
    0.5630   12.3100   -0.4300 H   0  0  0  0  0  0  0  0  0  0  0  0
  1  5  1  0  0  0  0
  2  1  1  0  0  0  0
  3  2  2  0  0  0  0
  4  2  1  6  0  0  0
  4 10  5  0  0  0  0
  6  4  5  0  0  0  0
  6  7  5  0  0  0  0
  6 13  1  6  0  0  0
  7 12  1  0  0  0  0
  8  7  5  6  0  0  0
  8 11  1  0  0  0  0
  9  8  5  0  0  0  0
  9 15  1  6  0  0  0
 10  9  5  0  0  0  0
 10 14  1  6  0  0  0
 11 19  1  0  0  0  0
 11 26  1  6  0  0  0
 13 27  1  0  0  0  0
 13 28  1  0  0  0  0
 13 29  1  0  0  0  0
 14 30  3  0  0  0  0
 16 11  1  0  0  0  0
 16 23  1  0  0  0  0
 16 25  1  0  0  0  0
 17 16  1  0  0  0  0
 17 24  1  1  0  0  0
 18 17  1  0  0  0  0
 19 18  1  0  0  0  0
 20 17  1  0  0  0  0
 20 32  2  0  0  0  0
 21 19  1  0  0  0  0
 22 18  1  0  0  0  0
 31 20  1  0  0  0  0
 33 31  1  0  0  0  0
M  END
