37

O          0.98700       -1.06100       -0.16900
C          0.01400       -0.27200        0.32300
O         -0.97600       -0.76500        0.85100
C          0.15700        1.20400        0.11600
H          1.76000       -0.67700       -0.62100
C         -1.01900        1.86900        0.05700
C         -1.05600        3.20500       -0.09100
C          0.07300        3.95100       -0.21100
C          1.24500        3.26700       -0.14700
C          1.30000        1.92600        0.03300
C          0.01300        5.44600       -0.30000
H         -2.04500        3.65500       -0.08300
H         -1.96700        1.33600        0.15200
C          2.58300        1.32200        0.15700
H          2.19400        3.79600       -0.21400
N          3.59900        0.76100        0.19700
C         -1.14600        6.10100       -0.55900
C         -1.25000        7.43500       -0.44100
C         -0.20000        8.21000       -0.07300
C          0.99800        7.58300        0.04900
C          1.08800        6.23700       -0.05500
C         -0.48400        9.66900        0.27600
H         -2.23700        7.87200       -0.58800
H         -2.05800        5.57100       -0.81800
H          2.06500        5.80200        0.12500
Cl         2.47400        8.40800        0.45300
C          0.54900       10.76500        0.18400
N         -0.32200       11.89100       -0.01000
N         -1.53300       11.52300       -0.50600
N         -1.61100       10.26400       -0.50100
C          0.04300       13.19200        0.18700
H          1.19700       10.69800       -0.69500
H          1.14300       10.89100        1.09400
H         -0.83300        9.63800        1.32100
O         -0.93600       14.08500       -0.06000
O          1.13600       13.58400        0.57100
H         -0.51400       14.94500        0.13500
