38

O          1.63500       -0.21300       -0.42700
C          0.46000        0.45100       -0.35100
O         -0.57300       -0.18300       -0.18700
C          0.56100        1.95500       -0.34700
H          2.42700        0.31800       -0.58400
C         -0.61600        2.63600       -0.30900
C         -0.53900        3.89700        0.18000
C          0.56000        4.67600        0.02500
C          1.72100        3.99700       -0.14400
C          1.72300        2.64700       -0.22200
C          0.38800        6.16200        0.07200
C         -1.24600        4.00600        1.54000
C         -3.00000        2.84500       -0.75700
H          2.69300        2.16700       -0.18800
H          2.67600        4.51600       -0.13900
H         -3.19300        2.98800       -1.82700
H         -2.96800        3.83200       -0.28900
H         -3.84900        2.31400       -0.32000
O         -1.84200        2.02900       -0.53500
H         -2.01700        4.76900        1.60300
H         -0.48500        4.18800        2.31300
H         -1.69500        3.04500        1.82900
C         -0.84000        6.71200        0.02500
C         -1.04400        8.02600        0.00900
C         -0.00900        8.89100        0.01500
C          1.25400        8.39000       -0.00500
C          1.43800        7.04700        0.04600
C         -0.34800       10.34900       -0.04300
H         -2.08000        8.37700        0.00200
H         -1.73100        6.10300       -0.03300
H          2.45300        6.66600        0.03700
C          2.50900        9.23100       -0.07500
H          2.40800       10.20700        0.40400
H          3.34100        8.74100        0.44300
H          2.79800        9.37200       -1.12000
O         -1.66300       10.61400        0.01200
O          0.43900       11.28700       -0.11100
H         -1.71400       11.57800       -0.01700
