40

O          1.67800        0.08400       -0.56800
C          0.46200        0.52000       -0.19400
O         -0.47100       -0.24700       -0.00600
C          0.34200        2.00600       -0.06500
H          2.30200        0.77600       -0.85100
C         -0.88800        2.51000       -0.22800
C         -1.14900        3.82700       -0.07500
C         -0.14700        4.73100        0.21700
C          1.10000        4.18800        0.40400
C          1.32800        2.85400        0.27000
C         -0.44600        6.27600        0.36900
Br        -3.01100        4.18000       -0.21500
H         -1.70300        1.82200       -0.46700
H          2.32000        2.45600        0.47000
Br         2.63500        5.16300        0.95800
O          0.68200        7.18000        0.17900
C         -1.24800        8.32800       -0.56500
C         -1.48900        6.85300       -0.57800
C          0.59600        9.66000        0.62600
H         -2.50900        6.70200       -0.22600
H         -1.57800        8.81500       -1.48800
H         -1.84000        8.73800        0.25800
H         -1.38000        6.45700       -1.59200
H          0.74500        8.60400       -1.30500
C          0.24000        8.47300       -0.34000
H         -0.76100        6.42800        1.41000
C          1.92100       10.36200        0.27700
C          1.53300       11.66800       -0.42700
N          0.06000       11.59100       -0.53400
N         -0.32500       10.81400        0.60900
C          1.93800       12.93400        0.34300
H         -1.30800       10.54500        0.58700
H         -0.30400       12.55500       -0.48300
H          2.55200        9.74400       -0.36900
H          1.97300       11.74300       -1.42700
H          2.48100       10.56900        1.19700
H          0.65700        9.26500        1.64700
O          1.03500       13.94300        0.23000
O          2.97900       13.12100        0.95200
H          1.42100       14.67000        0.76300
