32

O          1.13700        0.21400        0.00000
C         -0.02900        0.89500       -0.00000
O         -1.09900        0.30100       -0.00000
C          0.07400        2.38600       -0.00000
H          1.96600        0.71800        0.00000
C         -1.07300        3.11000        0.00000
C         -1.04400        4.46400        0.00000
C          0.13900        5.12200       -0.00000
C          1.27400        4.38400        0.00000
C          1.25100        3.04200       -0.00000
C          0.35300        6.55900       -0.00000
H         -1.98700        5.00600        0.00000
H         -2.03800        2.60300        0.00000
H          2.21700        2.56100       -0.00000
H          2.24900        4.86700       -0.00000
C         -0.44400        7.63900       -0.00000
N          0.19000        8.85200        0.00000
H         -1.52500        7.59000       -0.00000
H          1.41300        6.82600       -0.00000
N         -0.50500        9.87700       -0.00000
C          0.25400       11.02500        0.00000
C         -0.32000       12.23100        0.00000
C          0.34900       13.51600        0.00000
H         -1.40800       12.25100       -0.00000
H          1.33900       10.91800        0.00000
C         -0.40100       14.62800        0.00000
C          0.10800       16.00300       -0.00000
H         -1.48400       14.55500        0.00000
H          1.43700       13.56100        0.00000
O         -0.94700       16.84000       -0.00000
O          1.26000       16.38400        0.00000
H         -0.57100       17.74300       -0.00000
