
 OpenBabel11042013063D

 40 42  0  0  1  0  0  0  0  0999 V2000
    1.1790   -0.2580   -0.0140 O   0  0  0  0  0  0  0  0  0  0  0  0
    0.0350    0.4560   -0.0460 C   0  0  0  0  0  0  0  0  0  0  0  0
   -1.0520   -0.1050   -0.0880 O   0  0  0  0  0  0  0  0  0  0  0  0
    0.1900    1.9470   -0.0190 C   0  0  2  0  0  0  0  0  0  0  0  0
    2.0060    0.2430    0.0480 H   0  0  0  0  0  0  0  0  0  0  0  0
   -0.9610    2.6560   -0.0150 C   0  0  0  0  0  0  0  0  0  0  0  0
   -0.9430    4.0020    0.0150 C   0  0  0  0  0  0  0  0  0  0  0  0
    0.2250    4.6820    0.0510 C   0  0  1  0  0  0  0  0  0  0  0  0
    1.3720    3.9660    0.0340 C   0  0  0  0  0  0  0  0  0  0  0  0
    1.3620    2.6200   -0.0010 C   0  0  0  0  0  0  0  0  0  0  0  0
    0.3140    6.1340    0.0650 C   0  0  0  0  0  0  0  0  0  0  0  0
   -1.9010    4.5160    0.0090 H   0  0  0  0  0  0  0  0  0  0  0  0
   -1.9270    2.1520   -0.0400 H   0  0  0  0  0  0  0  0  0  0  0  0
    2.3280    2.1310   -0.0150 H   0  0  0  0  0  0  0  0  0  0  0  0
    2.3360    4.4750    0.0470 H   0  0  0  0  0  0  0  0  0  0  0  0
   -0.7000    7.0020    0.1850 C   0  0  0  0  0  0  0  0  0  0  0  0
   -0.4660    8.3920    0.0890 C   0  0  0  0  0  0  0  0  0  0  0  0
   -1.7300    6.6870    0.3110 H   0  0  0  0  0  0  0  0  0  0  0  0
    1.3160    6.5480   -0.0490 H   0  0  0  0  0  0  0  0  0  0  0  0
   -0.3530    9.5780   -0.0580 C   0  0  0  0  0  0  0  0  0  0  0  0
   -0.4180   11.0140   -0.2950 C   0  0  2  0  0  0  0  0  0  0  0  0
    0.7950   11.8170    0.0860 C   0  0  0  0  0  0  0  0  0  0  0  0
    0.1540   13.0160    0.6170 N   0  0  0  0  0  0  0  0  0  0  0  0
   -1.1170   12.6800    1.0450 N   0  0  0  0  0  0  0  0  0  0  0  0
   -1.4340   11.5390    0.6290 N   0  0  0  0  0  0  0  0  0  0  0  0
    0.1910   14.2470   -0.1750 C   0  0  2  0  0  0  0  0  0  0  0  0
    1.4660   12.0420   -0.7480 H   0  0  0  0  0  0  0  0  0  0  0  0
    1.3730   11.3620    0.9010 H   0  0  0  0  0  0  0  0  0  0  0  0
   -0.7180   11.2260   -1.3260 H   0  0  0  0  0  0  0  0  0  0  0  0
    1.4570   15.0560   -0.0360 C   0  0  0  0  0  0  0  0  0  0  0  0
    0.9060   16.3830   -0.0060 N   0  0  0  0  0  0  0  0  0  0  0  0
   -0.4310   16.3920    0.2230 N   0  0  0  0  0  0  0  0  0  0  0  0
   -0.8620   15.2130    0.2230 N   0  0  0  0  0  0  0  0  0  0  0  0
    1.6250   17.5360   -0.0910 C   0  0  0  0  0  0  0  0  0  0  0  0
    1.9990   14.8770    0.8980 H   0  0  0  0  0  0  0  0  0  0  0  0
    2.1430   14.9370   -0.8810 H   0  0  0  0  0  0  0  0  0  0  0  0
    0.0070   13.9780   -1.2230 H   0  0  0  0  0  0  0  0  0  0  0  0
    0.8810   18.6570   -0.0160 O   0  0  0  0  0  0  0  0  0  0  0  0
    2.8380   17.6200   -0.2400 O   0  0  0  0  0  0  0  0  0  0  0  0
    1.5280   19.3860   -0.0940 H   0  0  0  0  0  0  0  0  0  0  0  0
  1  5  1  0  0  0  0
  2  1  1  0  0  0  0
  3  2  2  0  0  0  0
  4  2  1  6  0  0  0
  4 10  5  0  0  0  0
  6  4  5  0  0  0  0
  6  7  5  0  0  0  0
  6 13  1  0  0  0  0
  7 12  1  0  0  0  0
  8  7  5  0  0  0  0
  8 11  1  6  0  0  0
  9  8  5  0  0  0  0
  9 15  1  0  0  0  0
 10  9  5  0  0  0  0
 10 14  1  0  0  0  0
 11 19  1  0  0  0  0
 16 11  2  0  0  0  0
 16 18  1  0  0  0  0
 17 16  1  0  0  0  0
 20 17  3  0  0  0  0
 21 20  1  0  0  0  0
 21 25  1  0  0  0  0
 21 29  1  6  0  0  0
 22 21  1  0  0  0  0
 22 27  1  0  0  0  0
 22 28  1  0  0  0  0
 23 22  1  0  0  0  0
 24 23  1  0  0  0  0
 25 24  2  0  0  0  0
 26 23  1  0  0  0  0
 26 33  1  0  0  0  0
 26 37  1  6  0  0  0
 30 26  1  0  0  0  0
 30 35  1  0  0  0  0
 30 36  1  0  0  0  0
 31 30  1  0  0  0  0
 32 31  1  0  0  0  0
 33 32  2  0  0  0  0
 34 31  1  0  0  0  0
 34 39  2  0  0  0  0
 38 34  1  0  0  0  0
 40 38  1  0  0  0  0
M  END
