
 OpenBabel11042013033D

 21 21  0  0  1  0  0  0  0  0999 V2000
    1.0480    0.2490    0.0810 O   0  0  0  0  0  0  0  0  0  0  0  0
   -0.0600    1.0150    0.0380 C   0  0  0  0  0  0  0  0  0  0  0  0
   -1.1420    0.4480   -0.0250 O   0  0  0  0  0  0  0  0  0  0  0  0
    0.1390    2.5220    0.0560 C   0  0  2  0  0  0  0  0  0  0  0  0
    1.8960    0.7240    0.0990 H   0  0  0  0  0  0  0  0  0  0  0  0
   -1.0100    3.2600    0.0500 C   0  0  1  0  0  0  0  0  0  0  0  0
   -0.9600    4.6050    0.0440 C   0  0  1  0  0  0  0  0  0  0  0  0
    0.2040    5.2680    0.0440 C   0  0  1  0  0  0  0  0  0  0  0  0
    1.3450    4.5540    0.0420 C   0  0  0  0  0  0  0  0  0  0  0  0
    1.3300    3.1960    0.0450 C   0  0  2  0  0  0  0  0  0  0  0  0
    0.2020    6.7010    0.0310 C   0  0  0  0  0  0  0  0  0  0  0  0
   -2.1250    5.2960    0.0360 F   0  0  0  0  0  0  0  0  0  0  0  0
   -2.2650    2.6710    0.0420 O   0  0  0  0  0  0  0  0  0  0  0  0
    3.0450    2.3880    0.0110 Br  0  0  0  0  0  0  0  0  0  0  0  0
    2.2960    5.0870    0.0310 H   0  0  0  0  0  0  0  0  0  0  0  0
    0.0850    7.8930    0.0140 C   0  0  0  0  0  0  0  0  0  0  0  0
   -0.1200    9.3110   -0.0050 C   0  0  0  0  0  0  0  0  0  0  0  0
   -2.9030    3.1570   -0.5070 H   0  0  0  0  0  0  0  0  0  0  0  0
   -1.4200    9.6810   -0.0060 O   0  0  0  0  0  0  0  0  0  0  0  0
    0.7840   10.1260   -0.0190 O   0  0  0  0  0  0  0  0  0  0  0  0
   -1.3840   10.6600   -0.0180 H   0  0  0  0  0  0  0  0  0  0  0  0
  1  5  1  0  0  0  0
  2  1  1  0  0  0  0
  3  2  2  0  0  0  0
  4  2  1  6  0  0  0
  4 10  5  0  0  0  0
  6  4  5  0  0  0  0
  6  7  5  0  0  0  0
  6 13  1  6  0  0  0
  7 12  1  6  0  0  0
  8  7  5  0  0  0  0
  8 11  1  6  0  0  0
  9  8  5  0  0  0  0
  9 15  1  0  0  0  0
 10  9  5  0  0  0  0
 10 14  1  6  0  0  0
 13 18  1  0  0  0  0
 16 11  3  0  0  0  0
 17 16  1  0  0  0  0
 17 20  2  0  0  0  0
 19 17  1  0  0  0  0
 21 19  1  0  0  0  0
M  END
