21

O          1.04800        0.24900        0.08100
C         -0.06000        1.01500        0.03800
O         -1.14200        0.44800       -0.02500
C          0.13900        2.52200        0.05600
H          1.89600        0.72400        0.09900
C         -1.01000        3.26000        0.05000
C         -0.96000        4.60500        0.04400
C          0.20400        5.26800        0.04400
C          1.34500        4.55400        0.04200
C          1.33000        3.19600        0.04500
C          0.20200        6.70100        0.03100
F         -2.12500        5.29600        0.03600
O         -2.26500        2.67100        0.04200
Br         3.04500        2.38800        0.01100
H          2.29600        5.08700        0.03100
C          0.08500        7.89300        0.01400
C         -0.12000        9.31100       -0.00500
H         -2.90300        3.15700       -0.50700
O         -1.42000        9.68100       -0.00600
O          0.78400       10.12600       -0.01900
H         -1.38400       10.66000       -0.01800
