25

O          1.61800        0.12900        0.14000
C          0.39500        0.68400        0.25700
O         -0.57700       -0.03600        0.42100
C          0.31200        2.18700        0.17600
H          2.40200        0.68500        0.02100
C         -0.89400        2.81600        0.06000
C         -0.95300        4.18400       -0.01700
C          0.17700        4.94900        0.05300
C          1.35300        4.28200        0.15200
C          1.42700        2.94500        0.21000
C          0.28800        6.42800        0.01300
N         -2.23100        4.83000       -0.21200
C         -2.11600        2.07100       -0.04300
H          2.42900        2.54600        0.29100
F          2.52700        4.95500        0.18800
N         -3.16600        1.58000       -0.17400
H         -2.25900        5.29500       -1.12100
H         -3.05500        4.22600       -0.17900
C         -0.63900        7.39800        0.08800
C         -0.19700        8.80900        0.02100
H         -1.70000        7.23400        0.20000
H          1.32000        6.78300       -0.06100
O         -1.25400        9.63700        0.03000
O          0.94300        9.21900       -0.05300
H         -0.85500       10.53100       -0.02400
