40

O          1.90900       -0.37500       -0.87300
C          0.75900        0.06400       -0.32000
O         -0.04000       -0.68400        0.22300
C          0.60100        1.53900       -0.36900
H          2.40800        0.30400       -1.36200
C         -0.59500        2.03300       -0.72200
C         -0.85800        3.35900       -0.62700
C          0.08600        4.22300       -0.14500
C          1.31700        3.69900        0.11800
C          1.58000        2.37900        0.01700
C         -0.15300        5.64500        0.40500
Cl        -2.46500        3.83600       -1.08100
F         -1.56700        1.18400       -1.13300
H          2.55500        2.00500        0.32100
H          2.10700        4.34600        0.50000
O          0.42100        6.80800       -0.25900
C         -1.26900        7.52000        1.26200
C         -1.55000        6.13900        0.71600
C          0.12500        9.37100        0.26100
H         -2.09900        5.50800        1.41900
H         -1.22600        7.52100        2.35600
H         -2.06800        8.20900        0.97100
H         -2.13600        6.27300       -0.20000
H          0.86900        7.79100        1.47000
C          0.10800        7.88800        0.68200
H          0.35700        5.59600        1.38400
O          1.42800        9.91900       -0.01100
C         -0.26900       11.23900       -1.04700
C         -0.72500        9.80100       -0.91700
C          1.78500       12.40900       -0.15200
H         -0.46700        9.24300       -1.82200
H         -0.50100       11.69200       -2.01500
H         -0.76600       11.85100       -0.28100
H         -1.79900        9.72300       -0.73700
H          1.76200       10.97600       -1.73100
C          1.23200       11.12400       -0.78500
H         -0.22100        9.92400        1.14900
O          1.23900       12.71800        1.03700
O          2.61600       13.15100       -0.65800
H          1.67000       13.56300        1.27400
