33

O          1.12100       -0.28300        0.19700
C         -0.14300        0.16500        0.02800
O         -1.11200       -0.57700        0.08000
C         -0.24200        1.64600       -0.11900
H          1.79500        0.41400        0.31100
C         -1.31500        2.28600        0.38500
C         -1.36200        3.63400        0.37100
C         -0.35100        4.38400       -0.15100
C          0.67100        3.70400       -0.75800
C          0.71800        2.36000       -0.73000
C         -0.38500        5.88000       -0.01100
H         -2.23300        4.10400        0.82300
H         -2.13200        1.72100        0.83100
H          1.57000        1.87600       -1.19900
O          1.74200        4.31200       -1.39400
C         -1.54400        6.57100       -0.20000
C         -1.60100        7.91000       -0.07400
C         -0.49800        8.63300        0.21900
C          0.65000        7.96800        0.42300
C          0.70900        6.62100        0.34600
N         -0.55300       10.00000        0.36300
H         -2.55000        8.42900       -0.20500
H         -2.46600        6.05500       -0.45800
N          1.97200        6.02200        0.64700
H          1.54200        8.53900        0.67100
H          2.64700        6.61800        1.12100
H          1.89500        5.12500        1.12500
H          1.90000        5.21500       -1.05800
N         -0.30900       10.64200       -0.68400
C         -0.31200       11.98600       -0.42500
O         -1.55700       12.49700       -0.30900
O          0.65900       12.72200       -0.32300
H         -1.37500       13.43800       -0.11400
