35

O          0.96300        0.50600        0.04900
C         -0.17900        1.22100        0.00800
O         -1.26600        0.65700       -0.00000
C         -0.03200        2.71600        0.00900
H          1.80400        0.98500        0.10200
C         -1.17400        3.42400        0.04400
C         -1.19500        4.77700        0.07600
C         -0.01800        5.50500        0.09900
C          1.13500        4.76900        0.02600
C          1.11800        3.40900       -0.02200
C         -0.08100        7.08100        0.23600
C         -2.59000        5.36900        0.10700
H         -2.11900        2.87800        0.04800
H          2.07000        2.89400       -0.07800
C          2.45500        5.32600        0.00500
C          1.16000        8.01500        0.21200
C          0.72400        9.29400       -0.50100
N         -0.71900        9.15500       -0.66600
N         -0.94100        7.73100       -0.77400
C          1.03000       10.59300        0.11600
H         -1.92500        7.53500       -0.60100
H         -1.18600        9.56200        0.15000
H          1.96700        7.61500       -0.40000
H          1.18400        9.30400       -1.49800
H          1.53900        8.18700        1.22600
H         -0.54100        7.24800        1.22400
N          3.55800        5.68100       -0.02500
H         -3.35800        4.62600        0.35600
H         -2.85600        5.74900       -0.88700
H         -2.68500        6.15700        0.85800
C          1.16400       11.76400        0.35100
C          1.24000       13.20100        0.40700
O          0.04300       13.81400        0.35200
O          2.28900       13.82200        0.42400
H          0.26700       14.76400        0.28700
