
 OpenBabel11042013063D

 48 51  0  0  1  0  0  0  0  0999 V2000
    1.5490   -1.5630   -0.3760 O   0  0  0  0  0  0  0  0  0  0  0  0
    0.3580   -0.9410   -0.2870 C   0  0  0  0  0  0  0  0  0  0  0  0
   -0.6770   -1.5760   -0.1370 O   0  0  0  0  0  0  0  0  0  0  0  0
    0.3960    0.5520   -0.3250 C   0  0  1  0  0  0  0  0  0  0  0  0
    2.3240   -1.0160   -0.5780 H   0  0  0  0  0  0  0  0  0  0  0  0
   -0.8040    1.1610   -0.3760 C   0  0  0  0  0  0  0  0  0  0  0  0
   -0.8950    2.4940   -0.2540 C   0  0  0  0  0  0  0  0  0  0  0  0
    0.1980    3.2930   -0.1030 C   0  0  2  0  0  0  0  0  0  0  0  0
    1.4160    2.6730   -0.2010 C   0  0  2  0  0  0  0  0  0  0  0  0
    1.4990    1.3210   -0.2740 C   0  0  0  0  0  0  0  0  0  0  0  0
   -0.0180    4.7510    0.1720 C   0  0  1  0  0  0  0  0  0  0  0  0
   -1.9080    2.8870   -0.2500 H   0  0  0  0  0  0  0  0  0  0  0  0
   -1.7250    0.5850   -0.4680 H   0  0  0  0  0  0  0  0  0  0  0  0
    2.4930    0.8830   -0.2600 H   0  0  0  0  0  0  0  0  0  0  0  0
    2.6830    3.3660   -0.2290 C   0  0  0  0  0  0  0  0  0  0  0  0
   -1.1840    5.3700   -0.1410 C   0  0  0  0  0  0  0  0  0  0  0  0
   -1.3700    6.6810    0.0720 C   0  0  0  0  0  0  0  0  0  0  0  0
   -0.3790    7.4610    0.5580 C   0  0  1  0  0  0  0  0  0  0  0  0
    0.7480    6.8480    0.9690 C   0  0  0  0  0  0  0  0  0  0  0  0
    0.9070    5.5240    0.7990 C   0  0  0  0  0  0  0  0  0  0  0  0
   -0.5360    8.9690    0.4770 C   0  0  1  0  0  0  0  0  0  0  0  0
   -2.3220    7.1160   -0.2270 H   0  0  0  0  0  0  0  0  0  0  0  0
   -2.0190    4.8590   -0.6070 H   0  0  0  0  0  0  0  0  0  0  0  0
    1.8440    5.1270    1.1690 H   0  0  0  0  0  0  0  0  0  0  0  0
    1.5700    7.4080    1.4060 H   0  0  0  0  0  0  0  0  0  0  0  0
    0.7230    9.8050    0.2870 C   0  0  0  0  0  0  0  0  0  0  0  0
    0.4400   10.5120   -0.9530 N   0  0  0  0  0  0  0  0  0  0  0  0
   -0.6040    9.9060   -1.6020 N   0  0  0  0  0  0  0  0  0  0  0  0
   -1.2650    9.2240   -0.7950 N   0  0  0  0  0  0  0  0  0  0  0  0
    0.2250   11.9380   -0.9470 C   0  0  2  0  0  0  0  0  0  0  0  0
    1.6270    9.2140    0.1070 H   0  0  0  0  0  0  0  0  0  0  0  0
    0.9190   10.4880    1.1190 H   0  0  0  0  0  0  0  0  0  0  0  0
   -1.1270    9.3400    1.3230 H   0  0  0  0  0  0  0  0  0  0  0  0
    3.7260    3.8670   -0.2630 N   0  0  0  0  0  0  0  0  0  0  0  0
    1.2860   12.6840   -0.3590 O   0  0  0  0  0  0  0  0  0  0  0  0
   -0.7650   13.8510   -0.0510 C   0  0  0  0  0  0  0  0  0  0  0  0
   -0.9910   12.3680   -0.1480 C   0  0  0  0  0  0  0  0  0  0  0  0
    1.3390   14.9460    0.7940 C   0  0  0  0  0  0  0  0  0  0  0  0
   -0.9760   11.9340    0.8600 H   0  0  0  0  0  0  0  0  0  0  0  0
   -1.1220   14.2360    0.9100 H   0  0  0  0  0  0  0  0  0  0  0  0
   -1.3130   14.3750   -0.8410 H   0  0  0  0  0  0  0  0  0  0  0  0
   -1.9420   12.0970   -0.6150 H   0  0  0  0  0  0  0  0  0  0  0  0
    0.9400   14.4860   -1.2350 H   0  0  0  0  0  0  0  0  0  0  0  0
    0.7480   14.0130   -0.2630 C   0  0  1  0  0  0  0  0  0  0  0  0
    0.1400   12.2460   -1.9990 H   0  0  0  0  0  0  0  0  0  0  0  0
    0.7770   16.1840    0.7650 O   0  0  0  0  0  0  0  0  0  0  0  0
    2.2280   14.6590    1.5790 O   0  0  0  0  0  0  0  0  0  0  0  0
    0.0840   16.3080    0.0870 H   0  0  0  0  0  0  0  0  0  0  0  0
  1  5  1  0  0  0  0
  2  1  1  0  0  0  0
  3  2  2  0  0  0  0
  4  2  1  1  0  0  0
  4 10  5  0  0  0  0
  6  4  5  0  0  0  0
  6  7  5  0  0  0  0
  6 13  1  0  0  0  0
  7 12  1  0  0  0  0
  8  7  5  1  0  0  0
  8 11  1  0  0  0  0
  9  8  5  0  0  0  0
  9 15  1  1  0  0  0
 10  9  5  0  0  0  0
 10 14  1  0  0  0  0
 11 16  5  1  0  0  0
 11 20  5  0  0  0  0
 15 34  3  0  0  0  0
 16 17  5  0  0  0  0
 16 23  1  0  0  0  0
 17 22  1  0  0  0  0
 18 17  5  6  0  0  0
 18 21  1  0  0  0  0
 19 18  5  0  0  0  0
 19 25  1  0  0  0  0
 20 19  5  0  0  0  0
 20 24  1  0  0  0  0
 21 29  1  0  0  0  0
 21 33  1  1  0  0  0
 26 21  1  0  0  0  0
 26 31  1  0  0  0  0
 26 32  1  0  0  0  0
 27 26  1  0  0  0  0
 28 27  1  0  0  0  0
 29 28  2  0  0  0  0
 30 27  1  0  0  0  0
 30 37  1  0  0  0  0
 30 45  1  6  0  0  0
 35 30  1  0  0  0  0
 36 44  1  0  0  0  0
 36 41  1  0  0  0  0
 37 36  1  0  0  0  0
 37 42  1  0  0  0  0
 38 44  1  0  0  0  0
 38 47  2  0  0  0  0
 39 37  1  0  0  0  0
 40 36  1  0  0  0  0
 44 35  1  0  0  0  0
 44 43  1  6  0  0  0
 46 38  1  0  0  0  0
 48 46  1  0  0  0  0
M  END
