
 OpenBabel11042013063D

 31 32  0  0  1  0  0  0  0  0999 V2000
    1.5830   -0.2340    0.1220 O   0  0  0  0  0  0  0  0  0  0  0  0
    0.3480    0.3030    0.1800 C   0  0  0  0  0  0  0  0  0  0  0  0
   -0.6270   -0.3830    0.4550 O   0  0  0  0  0  0  0  0  0  0  0  0
    0.2580    1.7740   -0.0800 C   0  0  1  0  0  0  0  0  0  0  0  0
    2.3040    0.3290   -0.2010 H   0  0  0  0  0  0  0  0  0  0  0  0
   -0.9870    2.2810   -0.2150 C   0  0  0  0  0  0  0  0  0  0  0  0
   -1.1880    3.6080   -0.3620 C   0  0  2  0  0  0  0  0  0  0  0  0
   -0.1330    4.4710   -0.3870 C   0  0  2  0  0  0  0  0  0  0  0  0
    1.1180    3.9450   -0.2840 C   0  0  2  0  0  0  0  0  0  0  0  0
    1.3090    2.6130   -0.1380 C   0  0  0  0  0  0  0  0  0  0  0  0
   -0.4090    5.8200   -0.3200 N   0  0  0  0  0  0  0  0  0  0  0  0
   -2.9810    4.2140   -0.4640 Br  0  0  0  0  0  0  0  0  0  0  0  0
   -1.8500    1.6150   -0.1640 H   0  0  0  0  0  0  0  0  0  0  0  0
    2.3230    2.2670   -0.0000 H   0  0  0  0  0  0  0  0  0  0  0  0
    2.5670    4.9200   -0.2440 Cl  0  0  0  0  0  0  0  0  0  0  0  0
    0.2870    6.6720   -0.9060 N   0  0  0  0  0  0  0  0  0  0  0  0
    0.2390    7.9220   -0.1140 C   0  0  1  0  0  0  0  0  0  0  0  0
    0.8910    9.1070   -0.6070 O   0  0  0  0  0  0  0  0  0  0  0  0
   -1.1430    9.8590    0.2260 C   0  0  0  0  0  0  0  0  0  0  0  0
   -1.2010    8.3510    0.1720 C   0  0  0  0  0  0  0  0  0  0  0  0
    0.6600   11.5800   -0.2730 C   0  0  0  0  0  0  0  0  0  0  0  0
   -1.8980    8.0280   -0.6100 H   0  0  0  0  0  0  0  0  0  0  0  0
   -1.6550   10.2720   -0.6520 H   0  0  0  0  0  0  0  0  0  0  0  0
   -1.6330   10.2640    1.1170 H   0  0  0  0  0  0  0  0  0  0  0  0
   -1.5480    7.9170    1.1170 H   0  0  0  0  0  0  0  0  0  0  0  0
    0.7670   10.0770    1.1960 H   0  0  0  0  0  0  0  0  0  0  0  0
    0.3440   10.1640    0.1870 C   0  0  2  0  0  0  0  0  0  0  0  0
    0.7420    7.7000    0.8390 H   0  0  0  0  0  0  0  0  0  0  0  0
   -0.3000   12.4770    0.0510 O   0  0  0  0  0  0  0  0  0  0  0  0
    1.6900   11.9710   -0.8000 O   0  0  0  0  0  0  0  0  0  0  0  0
    0.0530   13.3310   -0.2800 H   0  0  0  0  0  0  0  0  0  0  0  0
  1  5  1  0  0  0  0
  2  1  1  0  0  0  0
  3  2  2  0  0  0  0
  4  2  1  1  0  0  0
  4 10  5  0  0  0  0
  6  4  5  0  0  0  0
  6  7  5  0  0  0  0
  6 13  1  0  0  0  0
  7 12  1  1  0  0  0
  8  7  5  0  0  0  0
  8 11  1  1  0  0  0
  9  8  5  0  0  0  0
  9 15  1  1  0  0  0
 10  9  5  0  0  0  0
 10 14  1  0  0  0  0
 16 11  2  0  0  0  0
 17 16  1  0  0  0  0
 17 20  1  0  0  0  0
 17 28  1  1  0  0  0
 18 17  1  0  0  0  0
 19 27  1  0  0  0  0
 19 24  1  0  0  0  0
 20 19  1  0  0  0  0
 20 25  1  0  0  0  0
 21 27  1  0  0  0  0
 21 30  2  0  0  0  0
 22 20  1  0  0  0  0
 23 19  1  0  0  0  0
 27 18  1  0  0  0  0
 27 26  1  1  0  0  0
 29 21  1  0  0  0  0
 31 29  1  0  0  0  0
M  END
