
 OpenBabel11042013063D

 32 33  0  0  1  0  0  0  0  0999 V2000
    1.2750   -0.1830    0.0720 O   0  0  0  0  0  0  0  0  0  0  0  0
    0.0410    0.3660    0.1080 C   0  0  0  0  0  0  0  0  0  0  0  0
   -0.9630   -0.3330    0.1230 O   0  0  0  0  0  0  0  0  0  0  0  0
   -0.0080    1.8550    0.0830 C   0  0  2  0  0  0  0  0  0  0  0  0
    2.0140    0.4560    0.0520 H   0  0  0  0  0  0  0  0  0  0  0  0
   -1.2230    2.4490    0.0740 C   0  0  0  0  0  0  0  0  0  0  0  0
   -1.3260    3.7890   -0.0220 C   0  0  0  0  0  0  0  0  0  0  0  0
   -0.2240    4.5750   -0.1120 C   0  0  1  0  0  0  0  0  0  0  0  0
    0.9850    3.9700   -0.0510 C   0  0  0  0  0  0  0  0  0  0  0  0
    1.0880    2.6340    0.0420 C   0  0  2  0  0  0  0  0  0  0  0  0
   -0.3560    6.0690   -0.3450 C   0  0  2  0  0  0  0  0  0  0  0  0
   -2.3220    4.2320   -0.0560 H   0  0  0  0  0  0  0  0  0  0  0  0
   -2.1330    1.8500    0.1130 H   0  0  0  0  0  0  0  0  0  0  0  0
    2.3260    2.0930    0.0660 F   0  0  0  0  0  0  0  0  0  0  0  0
    1.9090    4.5380   -0.1060 H   0  0  0  0  0  0  0  0  0  0  0  0
    0.8220    6.9720   -0.0340 C   0  0  0  0  0  0  0  0  0  0  0  0
    0.0980    8.2010    0.1820 N   0  0  0  0  0  0  0  0  0  0  0  0
   -1.1810    7.9380    0.6120 N   0  0  0  0  0  0  0  0  0  0  0  0
   -1.4160    6.7090    0.4600 N   0  0  0  0  0  0  0  0  0  0  0  0
    0.6070    9.4780    0.0620 C   0  0  0  0  0  0  0  0  0  0  0  0
    1.5320    7.0220   -0.8650 H   0  0  0  0  0  0  0  0  0  0  0  0
    1.3470    6.6890    0.8860 H   0  0  0  0  0  0  0  0  0  0  0  0
   -0.6330    6.2010   -1.4020 H   0  0  0  0  0  0  0  0  0  0  0  0
   -0.1190   10.5990    0.0970 C   0  0  0  0  0  0  0  0  0  0  0  0
    0.3880   11.9180    0.0040 C   0  0  0  0  0  0  0  0  0  0  0  0
   -1.1960   10.5200    0.2080 H   0  0  0  0  0  0  0  0  0  0  0  0
    1.6860    9.5050   -0.0820 H   0  0  0  0  0  0  0  0  0  0  0  0
    0.5660   13.1070   -0.0280 C   0  0  0  0  0  0  0  0  0  0  0  0
    0.5230   14.5340   -0.0180 C   0  0  0  0  0  0  0  0  0  0  0  0
   -0.7330   15.0130   -0.0190 O   0  0  0  0  0  0  0  0  0  0  0  0
    1.5060   15.2520    0.0080 O   0  0  0  0  0  0  0  0  0  0  0  0
   -0.6320   15.9810    0.0100 H   0  0  0  0  0  0  0  0  0  0  0  0
  1  5  1  0  0  0  0
  2  1  1  0  0  0  0
  3  2  2  0  0  0  0
  4  2  1  6  0  0  0
  4 10  5  0  0  0  0
  6  4  5  0  0  0  0
  6  7  5  0  0  0  0
  6 13  1  0  0  0  0
  7 12  1  0  0  0  0
  8  7  5  6  0  0  0
  8 11  1  0  0  0  0
  9  8  5  0  0  0  0
  9 15  1  0  0  0  0
 10  9  5  0  0  0  0
 10 14  1  6  0  0  0
 11 19  1  0  0  0  0
 11 23  1  6  0  0  0
 16 11  1  0  0  0  0
 16 21  1  0  0  0  0
 16 22  1  0  0  0  0
 17 16  1  0  0  0  0
 18 17  1  0  0  0  0
 19 18  2  0  0  0  0
 20 17  1  0  0  0  0
 20 27  1  0  0  0  0
 24 20  2  0  0  0  0
 24 26  1  0  0  0  0
 25 24  1  0  0  0  0
 28 25  3  0  0  0  0
 29 28  1  0  0  0  0
 29 31  2  0  0  0  0
 30 29  1  0  0  0  0
 32 30  1  0  0  0  0
M  END
