
 OpenBabel11042013033D

 35 36  0  0  1  0  0  0  0  0999 V2000
    1.2860   -0.1960   -0.1110 O   0  0  0  0  0  0  0  0  0  0  0  0
    0.0890    0.4130   -0.2200 C   0  0  0  0  0  0  0  0  0  0  0  0
   -0.9230   -0.2240   -0.4770 O   0  0  0  0  0  0  0  0  0  0  0  0
    0.0840    1.8990   -0.0140 C   0  0  2  0  0  0  0  0  0  0  0  0
    2.0370    0.3450    0.1770 H   0  0  0  0  0  0  0  0  0  0  0  0
   -1.1380    2.4800    0.0420 C   0  0  0  0  0  0  0  0  0  0  0  0
   -1.2740    3.8180    0.1810 C   0  0  1  0  0  0  0  0  0  0  0  0
   -0.1640    4.5900    0.2710 C   0  0  1  0  0  0  0  0  0  0  0  0
    1.0560    4.0130    0.2330 C   0  0  0  0  0  0  0  0  0  0  0  0
    1.1820    2.6790    0.0870 C   0  0  0  0  0  0  0  0  0  0  0  0
   -0.2540    6.0110    0.3490 C   0  0  0  0  0  0  0  0  0  0  0  0
   -2.5850    4.3910    0.2140 C   0  0  0  0  0  0  0  0  0  0  0  0
   -2.0370    1.8660   -0.0440 H   0  0  0  0  0  0  0  0  0  0  0  0
    2.1910    2.2860    0.0320 H   0  0  0  0  0  0  0  0  0  0  0  0
    1.9530    4.6270    0.3000 H   0  0  0  0  0  0  0  0  0  0  0  0
   -0.3710    7.2060    0.3080 C   0  0  0  0  0  0  0  0  0  0  0  0
   -0.5140    8.6120    0.1610 C   0  0  2  0  0  0  0  0  0  0  0  0
   -1.6980    9.2120    0.3780 C   0  0  0  0  0  0  0  0  0  0  0  0
   -1.8220   10.5450    0.2150 C   0  0  0  0  0  0  0  0  0  0  0  0
   -0.7590   11.2910   -0.1670 C   0  0  2  0  0  0  0  0  0  0  0  0
    0.4350   10.6890   -0.3980 C   0  0  1  0  0  0  0  0  0  0  0  0
    0.5400    9.3520   -0.2340 C   0  0  0  0  0  0  0  0  0  0  0  0
   -0.9070   12.7690   -0.3220 C   0  0  0  0  0  0  0  0  0  0  0  0
   -2.7950   10.9960    0.3930 H   0  0  0  0  0  0  0  0  0  0  0  0
   -2.5690    8.6290    0.6760 H   0  0  0  0  0  0  0  0  0  0  0  0
    1.4930    8.8690   -0.4390 H   0  0  0  0  0  0  0  0  0  0  0  0
    2.3430   11.9200    0.1650 C   0  0  0  0  0  0  0  0  0  0  0  0
   -3.6460    4.8610    0.2450 N   0  0  0  0  0  0  0  0  0  0  0  0
    1.7680   12.1600    1.0660 H   0  0  0  0  0  0  0  0  0  0  0  0
    3.1450   11.2200    0.4150 H   0  0  0  0  0  0  0  0  0  0  0  0
    2.7920   12.8430   -0.2130 H   0  0  0  0  0  0  0  0  0  0  0  0
    1.5410   11.3700   -0.8800 O   0  0  0  0  0  0  0  0  0  0  0  0
   -2.1570   13.2090   -0.0700 O   0  0  0  0  0  0  0  0  0  0  0  0
   -0.0400   13.5830   -0.5870 O   0  0  0  0  0  0  0  0  0  0  0  0
   -2.0680   14.1800   -0.1720 H   0  0  0  0  0  0  0  0  0  0  0  0
  1  5  1  0  0  0  0
  2  1  1  0  0  0  0
  3  2  2  0  0  0  0
  4  2  1  6  0  0  0
  4 10  5  0  0  0  0
  6  4  5  0  0  0  0
  6  7  5  0  0  0  0
  6 13  1  0  0  0  0
  7 12  1  6  0  0  0
  8  7  5  0  0  0  0
  8 11  1  6  0  0  0
  9  8  5  0  0  0  0
  9 15  1  0  0  0  0
 10  9  5  0  0  0  0
 10 14  1  0  0  0  0
 12 28  3  0  0  0  0
 16 11  3  0  0  0  0
 17 16  1  6  0  0  0
 17 22  5  0  0  0  0
 18 17  5  0  0  0  0
 18 19  5  0  0  0  0
 18 25  1  0  0  0  0
 19 24  1  0  0  0  0
 20 19  5  0  0  0  0
 20 23  1  1  0  0  0
 21 20  5  0  0  0  0
 21 32  1  6  0  0  0
 22 21  5  0  0  0  0
 22 26  1  0  0  0  0
 23 34  2  0  0  0  0
 27 29  1  0  0  0  0
 27 30  1  0  0  0  0
 27 31  1  0  0  0  0
 27 32  1  0  0  0  0
 33 23  1  0  0  0  0
 35 33  1  0  0  0  0
M  END
