
 OpenBabel11042013063D

 24 24  0  0  1  0  0  0  0  0999 V2000
    1.8010    0.5380   -0.0280 O   0  0  0  0  0  0  0  0  0  0  0  0
    0.4890    0.7920   -0.1840 C   0  0  0  0  0  0  0  0  0  0  0  0
   -0.2970   -0.1350   -0.2860 O   0  0  0  0  0  0  0  0  0  0  0  0
    0.1580    2.2290   -0.1860 C   0  0  2  0  0  0  0  0  0  0  0  0
    1.8600   -0.4400   -0.0780 H   0  0  0  0  0  0  0  0  0  0  0  0
   -1.0780    2.6030    0.1890 C   0  0  2  0  0  0  0  0  0  0  0  0
   -1.4520    3.9050    0.1690 C   0  0  2  0  0  0  0  0  0  0  0  0
   -0.5730    4.8630   -0.2300 C   0  0  1  0  0  0  0  0  0  0  0  0
    0.6980    4.4870   -0.5570 C   0  0  1  0  0  0  0  0  0  0  0  0
    1.0340    3.1770   -0.5540 C   0  0  1  0  0  0  0  0  0  0  0  0
   -0.9060    6.3250   -0.3410 C   0  0  0  0  0  0  0  0  0  0  0  0
   -2.7850    4.1910    0.5830 N   0  0  0  0  0  0  0  0  0  0  0  0
   -1.9750    1.6750    0.6000 F   0  0  0  0  0  0  0  0  0  0  0  0
    2.2890    2.8430   -0.9350 F   0  0  0  0  0  0  0  0  0  0  0  0
    2.3970    5.8790    0.2080 C   0  0  0  0  0  0  0  0  0  0  0  0
   -3.2410    3.5190    1.1930 H   0  0  0  0  0  0  0  0  0  0  0  0
   -2.9960    5.1660    0.8010 H   0  0  0  0  0  0  0  0  0  0  0  0
    2.2210    6.9540    0.3060 H   0  0  0  0  0  0  0  0  0  0  0  0
    3.4660    5.7160    0.0390 H   0  0  0  0  0  0  0  0  0  0  0  0
    2.1130    5.3880    1.1460 H   0  0  0  0  0  0  0  0  0  0  0  0
    1.6790    5.3950   -0.9310 O   0  0  0  0  0  0  0  0  0  0  0  0
   -2.1330    6.6650    0.1080 O   0  0  0  0  0  0  0  0  0  0  0  0
   -0.2040    7.2200   -0.7790 O   0  0  0  0  0  0  0  0  0  0  0  0
   -2.1750    7.6220   -0.1080 H   0  0  0  0  0  0  0  0  0  0  0  0
  1  5  1  0  0  0  0
  2  1  1  0  0  0  0
  3  2  2  0  0  0  0
  4  2  1  6  0  0  0
  4 10  5  0  0  0  0
  6  4  5  0  0  0  0
  6  7  5  0  0  0  0
  6 13  1  1  0  0  0
  7 12  1  1  0  0  0
  8  7  5  0  0  0  0
  8 11  1  6  0  0  0
  9  8  5  0  0  0  0
  9 21  1  6  0  0  0
 10  9  5  0  0  0  0
 10 14  1  1  0  0  0
 11 23  2  0  0  0  0
 12 16  1  0  0  0  0
 12 17  1  0  0  0  0
 15 18  1  0  0  0  0
 15 19  1  0  0  0  0
 15 20  1  0  0  0  0
 15 21  1  0  0  0  0
 22 11  1  0  0  0  0
 24 22  1  0  0  0  0
M  END
