24

O          1.80100        0.53800       -0.02800
C          0.48900        0.79200       -0.18400
O         -0.29700       -0.13500       -0.28600
C          0.15800        2.22900       -0.18600
H          1.86000       -0.44000       -0.07800
C         -1.07800        2.60300        0.18900
C         -1.45200        3.90500        0.16900
C         -0.57300        4.86300       -0.23000
C          0.69800        4.48700       -0.55700
C          1.03400        3.17700       -0.55400
C         -0.90600        6.32500       -0.34100
N         -2.78500        4.19100        0.58300
F         -1.97500        1.67500        0.60000
F          2.28900        2.84300       -0.93500
C          2.39700        5.87900        0.20800
H         -3.24100        3.51900        1.19300
H         -2.99600        5.16600        0.80100
H          2.22100        6.95400        0.30600
H          3.46600        5.71600        0.03900
H          2.11300        5.38800        1.14600
O          1.67900        5.39500       -0.93100
O         -2.13300        6.66500        0.10800
O         -0.20400        7.22000       -0.77900
H         -2.17500        7.62200       -0.10800
