40

O          1.08400       -0.59900        0.23400
C         -0.04600        0.13100        0.19000
O         -1.13400       -0.43000        0.21700
C          0.10700        1.62600        0.09100
H          1.91200       -0.08700        0.21300
C         -1.08600        2.25500       -0.04400
C         -1.16700        3.58800       -0.16900
C         -0.06400        4.37200       -0.15500
C          1.12600        3.73600       -0.01500
C          1.23400        2.38600        0.10600
C         -0.17000        5.89000       -0.33200
H         -2.15900        4.01000       -0.30000
H         -2.02200        1.68900       -0.06800
Br         2.98400        1.68100        0.27100
F          2.26100        4.47300       -0.03200
O          0.90100        6.62700        0.30600
C         -0.99900        7.56800        1.18300
C         -1.46400        6.56200        0.15300
C          0.51300        8.93300       -0.48500
H         -1.94800        7.05600       -0.69600
H         -1.67800        8.41100        1.32400
H         -0.92400        7.05300        2.15000
H         -2.21300        5.89800        0.59100
H          1.00900        8.27400        1.54700
C          0.39200        7.93200        0.71000
H         -0.06700        6.07700       -1.41000
O          1.51200        9.94300       -0.19600
C         -0.60100       11.02200       -0.08000
C         -0.71400        9.74200       -0.86400
C          1.45900       12.47100       -0.15600
H         -1.67800        9.25200       -0.72000
H         -0.96500       11.86400       -0.67800
H         -1.21100       10.99100        0.82900
H         -0.65600        9.98200       -1.93300
H          0.98400       11.10400        1.38600
C          0.87200       11.12600        0.29500
H          0.87600        8.38800       -1.36400
O          0.68200       13.51900        0.23600
O          2.50000       12.68400       -0.74500
H          1.15300       14.31200       -0.09700
