34

O          1.58600       -0.36100       -0.05600
C          0.36700        0.21900       -0.05500
O         -0.64800       -0.46100       -0.06500
C          0.35500        1.71500       -0.00800
H          2.35300        0.22900       -0.10700
C         -0.86000        2.29700       -0.11400
C         -1.00800        3.63400       -0.00500
C          0.07000        4.43100        0.21100
C          1.28700        3.83400        0.27900
C          1.43300        2.50000        0.17600
C         -0.00000        5.93700        0.42500
N         -2.32800        4.14700       -0.06900
H         -1.74400        1.67800       -0.26100
H          2.43900        2.11400        0.27900
H          2.18500        4.41800        0.45600
H         -3.03800        3.59300       -0.53700
H         -2.43800        5.14500       -0.23600
C          1.18100        6.74800       -0.06600
N          0.51400        7.96500       -0.38700
N         -0.83100        7.80000       -0.54400
N         -1.13200        6.61200       -0.26200
N          1.11000        9.16400       -0.19400
H          1.94400        6.90000        0.70400
H          1.63300        6.36300       -0.98600
H         -0.13400        6.10900        1.50300
N          0.24900       10.04700       -0.07400
C          0.67900       11.33300        0.01500
C         -0.23100       12.31100        0.04500
C          0.16300       13.70800        0.05000
H         -1.28900       12.08100        0.02800
H          1.74900       11.53200        0.02500
O         -0.93300       14.48300        0.02300
O          1.29200       14.16300        0.05500
H         -0.58400       15.39600       -0.00100
