48

O          1.35700       -2.04400       -0.02600
C          0.25500       -1.34400       -0.35600
O         -0.69000       -1.83800       -0.95800
C          0.30400        0.08000        0.04500
H          1.96200       -1.56200        0.56800
C         -0.84700        0.67800        0.42500
C         -0.87300        2.00700        0.64200
C          0.23400        2.76800        0.45100
C          1.39600        2.13200        0.15500
C          1.43600        0.80800       -0.05800
C          0.16900        4.23800        0.35400
H         -1.83100        2.45400        0.89500
H         -1.76800        0.10800        0.49100
H          2.37700        0.36600       -0.37100
H          2.31500        2.68700       -0.01300
C         -0.94500        4.83000       -0.12800
C         -0.96700        6.13400       -0.42400
C          0.11400        6.93700       -0.23100
C          1.22300        6.35200        0.30200
C          1.23900        5.03200        0.58000
C         -0.03900        8.38400       -0.47800
H         -1.90000        6.51600       -0.82800
H         -1.85200        4.26500       -0.32600
H          2.15600        4.60900        0.98000
Cl         2.71000        7.18400        0.69500
C         -1.22600        8.97800       -0.21800
C         -1.35200       10.31400       -0.15900
C         -0.28900       11.12800       -0.34900
C          0.85400       10.54100       -0.77800
C          0.96700        9.20500       -0.86700
C         -0.38900       12.58500       -0.07500
H         -2.33600       10.67700        0.10100
H         -2.11800        8.41400        0.02800
H          1.92700        8.80800       -1.18500
H          1.73900       11.12200       -1.02500
C         -1.59300       13.19400        0.08000
C         -1.69700       14.51900        0.26900
C         -0.59000       15.28000        0.29800
C          0.62400       14.69600        0.24300
C          0.71400       13.36800        0.06700
C         -0.68000       16.76200        0.31400
H         -2.69100       14.95600        0.35600
H         -2.52900       12.65200        0.03400
H          1.71600       12.94500        0.03100
H          1.52900       15.28900        0.30300
O         -1.91300       17.20000        0.02200
O          0.25300       17.53700        0.44100
H         -1.79900       18.16400       -0.09500
