34

O          1.22800       -0.03800       -0.00300
C          0.05000        0.61600        0.04300
O         -0.99100       -0.01800        0.09800
C          0.10200        2.11900        0.05800
H          2.07000        0.44000       -0.03200
C         -1.04700        2.84800        0.05400
C         -0.98000        4.19900        0.14300
C          0.20100        4.85700        0.16400
C          1.34300        4.12800        0.10100
C          1.28400        2.78000        0.07400
C          0.27700        6.30800        0.28500
H         -1.91400        4.76200        0.18200
C         -2.36200        2.28700       -0.08100
H          2.23900        2.26900        0.05600
C          2.63600        4.74600        0.02000
C         -0.62700        7.21900       -0.10300
C         -0.39400        8.65500       -0.03500
H         -1.59000        6.91200       -0.50700
H          1.20200        6.68400        0.72200
N         -3.46000        1.94800       -0.25000
N          3.67800        5.24500       -0.08100
C         -1.45900        9.48200        0.01200
C         -1.29600       10.81700        0.04100
C         -0.05700       11.35100        0.01400
C          1.01600       10.54100       -0.04700
C          0.84600        9.20500       -0.08300
C          0.15500       12.82000        0.04000
H         -2.17800       11.44900        0.08200
H         -2.47200        9.08600        0.02900
H          1.74000        8.59000       -0.15900
H          2.02700       10.94600       -0.07800
O         -0.99800       13.51400        0.03300
O          1.23000       13.39400        0.05500
H         -0.71100       14.44800        0.03900
