
 OpenBabel11042013063D

 55 58  0  0  1  0  0  0  0  0999 V2000
    1.9100    0.9610   -0.2110 O   0  0  0  0  0  0  0  0  0  0  0  0
    0.7950    1.6200   -0.5950 C   0  0  0  0  0  0  0  0  0  0  0  0
   -0.1870    1.0300   -1.0230 O   0  0  0  0  0  0  0  0  0  0  0  0
    0.8550    3.1060   -0.3910 C   0  0  2  0  0  0  0  0  0  0  0  0
    2.5510    1.5080    0.2740 H   0  0  0  0  0  0  0  0  0  0  0  0
   -0.3250    3.7010   -0.1460 C   0  0  0  0  0  0  0  0  0  0  0  0
   -0.4230    5.0350    0.0540 C   0  0  2  0  0  0  0  0  0  0  0  0
    0.7150    5.8170    0.0090 C   0  0  2  0  0  0  0  0  0  0  0  0
    1.8920    5.1950   -0.2530 C   0  0  0  0  0  0  0  0  0  0  0  0
    1.9690    3.8650   -0.4460 C   0  0  0  0  0  0  0  0  0  0  0  0
    0.6420    7.3520    0.2830 C   0  0  1  0  0  0  0  0  0  0  0  0
   -2.8470    4.8580    0.2360 C   0  0  0  0  0  0  0  0  0  0  0  0
   -1.2100    3.0680   -0.1050 H   0  0  0  0  0  0  0  0  0  0  0  0
    2.9360    3.4220   -0.6520 H   0  0  0  0  0  0  0  0  0  0  0  0
    2.8050    5.7830   -0.2890 H   0  0  0  0  0  0  0  0  0  0  0  0
    1.6050    8.5020   -0.1930 C   0  0  0  0  0  0  0  0  0  0  0  0
    0.8100    9.7840    0.2330 C   0  0  2  0  0  0  0  0  0  0  0  0
   -0.6060    9.2840    0.1280 N   0  0  0  0  0  0  0  0  0  0  0  0
   -0.5760    7.9290   -0.2810 N   0  0  0  0  0  0  0  0  0  0  0  0
    0.8680   11.2450   -0.4360 C   0  0  2  0  0  0  0  0  0  0  0  0
   -1.3800    7.4000    0.0770 H   0  0  0  0  0  0  0  0  0  0  0  0
   -1.1040    9.7900   -0.6070 H   0  0  0  0  0  0  0  0  0  0  0  0
    2.5740    8.4390    0.3140 H   0  0  0  0  0  0  0  0  0  0  0  0
    1.0300    9.9310    1.3000 H   0  0  0  0  0  0  0  0  0  0  0  0
    1.7660    8.4650   -1.2780 H   0  0  0  0  0  0  0  0  0  0  0  0
    0.5980    7.4150    1.3830 H   0  0  0  0  0  0  0  0  0  0  0  0
    1.9120   12.2450   -0.1020 O   0  0  0  0  0  0  0  0  0  0  0  0
   -0.1650   13.3790   -0.1050 C   0  0  0  0  0  0  0  0  0  0  0  0
   -0.4270   11.9380    0.0080 C   0  0  0  0  0  0  0  0  0  0  0  0
    1.7410   14.9440   -0.3080 C   0  0  2  0  0  0  0  0  0  0  0  0
   -1.2950   11.6800   -0.6040 H   0  0  0  0  0  0  0  0  0  0  0  0
   -0.3200   13.6740   -1.1490 H   0  0  0  0  0  0  0  0  0  0  0  0
   -0.8500   13.9470    0.5310 H   0  0  0  0  0  0  0  0  0  0  0  0
   -0.6520   11.7120    1.0590 H   0  0  0  0  0  0  0  0  0  0  0  0
    1.4120   13.5760    1.3840 H   0  0  0  0  0  0  0  0  0  0  0  0
    1.2900   13.5340    0.2940 C   0  0  2  0  0  0  0  0  0  0  0  0
    0.8980   11.1380   -1.5270 H   0  0  0  0  0  0  0  0  0  0  0  0
   -2.9420    4.3830   -0.7470 H   0  0  0  0  0  0  0  0  0  0  0  0
   -2.8910    4.1150    1.0390 H   0  0  0  0  0  0  0  0  0  0  0  0
   -3.6990    5.5340    0.3580 H   0  0  0  0  0  0  0  0  0  0  0  0
   -1.6510    5.6320    0.3360 O   0  0  0  0  0  0  0  0  0  0  0  0
    2.8810   15.6120    0.2960 O   0  0  0  0  0  0  0  0  0  0  0  0
    1.2520   17.2980   -0.1700 C   0  0  0  0  0  0  0  0  0  0  0  0
    0.6000   15.9640   -0.1040 C   0  0  0  0  0  0  0  0  0  0  0  0
    3.5380   18.1230   -0.0440 C   0  0  0  0  0  0  0  0  0  0  0  0
   -0.2060   15.8790   -0.8360 H   0  0  0  0  0  0  0  0  0  0  0  0
    1.3490   17.6200   -1.2140 H   0  0  0  0  0  0  0  0  0  0  0  0
    0.6790   18.0690    0.3590 H   0  0  0  0  0  0  0  0  0  0  0  0
    0.1740   15.8580    0.9030 H   0  0  0  0  0  0  0  0  0  0  0  0
    2.5390   17.1710    1.5630 H   0  0  0  0  0  0  0  0  0  0  0  0
    2.5950   17.0230    0.4780 C   0  0  2  0  0  0  0  0  0  0  0  0
    1.9790   14.8300   -1.3730 H   0  0  0  0  0  0  0  0  0  0  0  0
    3.0570   19.3670    0.2180 O   0  0  0  0  0  0  0  0  0  0  0  0
    4.5840   17.9910   -0.6560 O   0  0  0  0  0  0  0  0  0  0  0  0
    3.6780   19.9870   -0.2210 H   0  0  0  0  0  0  0  0  0  0  0  0
  1  5  1  0  0  0  0
  2  1  1  0  0  0  0
  3  2  2  0  0  0  0
  4  2  1  6  0  0  0
  4 10  5  0  0  0  0
  6  4  5  0  0  0  0
  6  7  5  0  0  0  0
  6 13  1  0  0  0  0
  7 41  1  1  0  0  0
  8  7  5  0  0  0  0
  8  9  5  1  0  0  0
  8 11  1  0  0  0  0
  9 15  1  0  0  0  0
 10  9  5  0  0  0  0
 10 14  1  0  0  0  0
 11 19  1  0  0  0  0
 11 26  1  1  0  0  0
 12 38  1  0  0  0  0
 12 39  1  0  0  0  0
 12 40  1  0  0  0  0
 12 41  1  0  0  0  0
 16 11  1  0  0  0  0
 16 23  1  0  0  0  0
 16 25  1  0  0  0  0
 17 16  1  0  0  0  0
 17 24  1  1  0  0  0
 18 17  1  0  0  0  0
 19 18  1  0  0  0  0
 20 17  1  0  0  0  0
 20 29  1  0  0  0  0
 20 37  1  6  0  0  0
 21 19  1  0  0  0  0
 22 18  1  0  0  0  0
 27 20  1  0  0  0  0
 28 36  1  0  0  0  0
 28 33  1  0  0  0  0
 29 28  1  0  0  0  0
 29 34  1  0  0  0  0
 30 36  1  0  0  0  0
 30 44  1  0  0  0  0
 30 52  1  6  0  0  0
 31 29  1  0  0  0  0
 32 28  1  0  0  0  0
 36 27  1  0  0  0  0
 36 35  1  1  0  0  0
 42 30  1  0  0  0  0
 43 51  1  0  0  0  0
 43 48  1  0  0  0  0
 44 43  1  0  0  0  0
 44 49  1  0  0  0  0
 45 51  1  0  0  0  0
 45 54  2  0  0  0  0
 46 44  1  0  0  0  0
 47 43  1  0  0  0  0
 51 42  1  0  0  0  0
 51 50  1  1  0  0  0
 53 45  1  0  0  0  0
 55 53  1  0  0  0  0
M  END
