
 OpenBabel11042013063D

 32 33  0  0  1  0  0  0  0  0999 V2000
    1.6050    0.0950   -0.2060 O   0  0  0  0  0  0  0  0  0  0  0  0
    0.4920    0.7620    0.1610 C   0  0  0  0  0  0  0  0  0  0  0  0
   -0.4630    0.1380    0.6070 O   0  0  0  0  0  0  0  0  0  0  0  0
    0.4970    2.2620    0.0260 C   0  0  1  0  0  0  0  0  0  0  0  0
    2.4060    0.5580   -0.5090 H   0  0  0  0  0  0  0  0  0  0  0  0
   -0.6900    2.8320   -0.3270 C   0  0  1  0  0  0  0  0  0  0  0  0
   -0.7970    4.1800   -0.3820 C   0  0  1  0  0  0  0  0  0  0  0  0
    0.2660    4.9940   -0.1210 C   0  0  1  0  0  0  0  0  0  0  0  0
    1.4430    4.4080    0.2010 C   0  0  0  0  0  0  0  0  0  0  0  0
    1.5670    3.0580    0.2920 C   0  0  2  0  0  0  0  0  0  0  0  0
    0.0650    6.4960   -0.2930 C   0  0  2  0  0  0  0  0  0  0  0  0
   -2.0150    4.7450   -0.7340 O   0  0  0  0  0  0  0  0  0  0  0  0
   -2.9820    2.1880    0.0050 C   0  0  0  0  0  0  0  0  0  0  0  0
    2.8470    2.5210    0.6320 C   0  0  0  0  0  0  0  0  0  0  0  0
    2.3210    5.0280    0.3840 H   0  0  0  0  0  0  0  0  0  0  0  0
   -2.2800    5.4330   -0.0920 H   0  0  0  0  0  0  0  0  0  0  0  0
   -3.1050    1.3370    0.6810 H   0  0  0  0  0  0  0  0  0  0  0  0
   -3.8040    2.1740   -0.7190 H   0  0  0  0  0  0  0  0  0  0  0  0
   -3.0580    3.1040    0.5980 H   0  0  0  0  0  0  0  0  0  0  0  0
   -1.7610    2.0350   -0.7180 O   0  0  0  0  0  0  0  0  0  0  0  0
    3.8950    2.0410    0.8000 N   0  0  0  0  0  0  0  0  0  0  0  0
    1.1110    7.5360    0.0390 C   0  0  0  0  0  0  0  0  0  0  0  0
    0.2210    8.6480    0.2890 N   0  0  0  0  0  0  0  0  0  0  0  0
   -1.0160    8.2270    0.6780 N   0  0  0  0  0  0  0  0  0  0  0  0
   -1.0830    6.9790    0.5310 N   0  0  0  0  0  0  0  0  0  0  0  0
    0.4840    9.9600    0.0120 C   0  0  0  0  0  0  0  0  0  0  0  0
    1.8100    7.7450   -0.7760 H   0  0  0  0  0  0  0  0  0  0  0  0
    1.6570    7.3350    0.9660 H   0  0  0  0  0  0  0  0  0  0  0  0
   -0.2140    6.6480   -1.3470 H   0  0  0  0  0  0  0  0  0  0  0  0
   -0.5820   10.7750    0.1630 O   0  0  0  0  0  0  0  0  0  0  0  0
    1.5460   10.4160   -0.3840 O   0  0  0  0  0  0  0  0  0  0  0  0
   -0.2570   11.6550   -0.1150 H   0  0  0  0  0  0  0  0  0  0  0  0
  1  5  1  0  0  0  0
  2  1  1  0  0  0  0
  3  2  2  0  0  0  0
  4  2  1  1  0  0  0
  4 10  5  0  0  0  0
  6  4  5  0  0  0  0
  6  7  5  0  0  0  0
  6 20  1  6  0  0  0
  7 12  1  6  0  0  0
  8  7  5  0  0  0  0
  8  9  5  6  0  0  0
  8 11  1  0  0  0  0
  9 15  1  0  0  0  0
 10  9  5  0  0  0  0
 10 14  1  6  0  0  0
 11 25  1  0  0  0  0
 11 29  1  6  0  0  0
 12 16  1  0  0  0  0
 13 17  1  0  0  0  0
 13 18  1  0  0  0  0
 13 19  1  0  0  0  0
 13 20  1  0  0  0  0
 14 21  3  0  0  0  0
 22 11  1  0  0  0  0
 22 27  1  0  0  0  0
 22 28  1  0  0  0  0
 23 22  1  0  0  0  0
 24 23  1  0  0  0  0
 25 24  2  0  0  0  0
 26 23  1  0  0  0  0
 26 31  2  0  0  0  0
 30 26  1  0  0  0  0
 32 30  1  0  0  0  0
M  END
