32

O          1.39100        0.10600       -0.05200
C          0.25400        0.83100       -0.07000
O         -0.83900        0.28100       -0.03400
C          0.42300        2.32100       -0.13100
H          2.22600        0.59300       -0.12400
C         -0.72100        3.04000       -0.17600
C         -0.73100        4.39700       -0.21600
C          0.46800        5.04900       -0.24400
C          1.60700        4.32400       -0.20100
C          1.59900        2.97900       -0.13200
N          0.60300        6.41200       -0.36200
C         -2.04300        5.18200       -0.20600
H         -1.66500        2.49800       -0.17800
H          2.56100        2.48800       -0.08000
H          2.56300        4.84600       -0.21800
N          0.27600        7.08300        0.63800
N          0.71100        8.38700        0.46300
N         -0.23400        9.13600        0.15300
C          0.13500       10.44600        0.02100
C         -3.32700        4.40500        0.09000
H         -3.29500        3.97000        1.09600
H         -3.50000        3.60400       -0.63500
H         -4.19200        5.07600        0.04800
H         -1.98800        5.95200        0.57000
H         -2.16300        5.69700       -1.16800
C         -0.75900       11.43500       -0.05100
C         -0.28400       12.81500       -0.09000
H         -1.82600       11.25300       -0.03700
H          1.20400       10.66400        0.00100
O         -1.33100       13.65600       -0.07800
O          0.86600       13.20500       -0.11400
H         -0.92400       14.54600       -0.07500
