
 OpenBabel11042013063D

 32 32  0  0  1  0  0  0  0  0999 V2000
    1.3910    0.1060   -0.0520 O   0  0  0  0  0  0  0  0  0  0  0  0
    0.2540    0.8310   -0.0700 C   0  0  0  0  0  0  0  0  0  0  0  0
   -0.8390    0.2810   -0.0340 O   0  0  0  0  0  0  0  0  0  0  0  0
    0.4230    2.3210   -0.1310 C   0  0  1  0  0  0  0  0  0  0  0  0
    2.2260    0.5930   -0.1240 H   0  0  0  0  0  0  0  0  0  0  0  0
   -0.7210    3.0400   -0.1760 C   0  0  0  0  0  0  0  0  0  0  0  0
   -0.7310    4.3970   -0.2160 C   0  0  2  0  0  0  0  0  0  0  0  0
    0.4680    5.0490   -0.2440 C   0  0  1  0  0  0  0  0  0  0  0  0
    1.6070    4.3240   -0.2010 C   0  0  0  0  0  0  0  0  0  0  0  0
    1.5990    2.9790   -0.1320 C   0  0  0  0  0  0  0  0  0  0  0  0
    0.6030    6.4120   -0.3620 N   0  0  0  0  0  0  0  0  0  0  0  0
   -2.0430    5.1820   -0.2060 C   0  0  0  0  0  0  0  0  0  0  0  0
   -1.6650    2.4980   -0.1780 H   0  0  0  0  0  0  0  0  0  0  0  0
    2.5610    2.4880   -0.0800 H   0  0  0  0  0  0  0  0  0  0  0  0
    2.5630    4.8460   -0.2180 H   0  0  0  0  0  0  0  0  0  0  0  0
    0.2760    7.0830    0.6380 N   0  0  0  0  0  0  0  0  0  0  0  0
    0.7110    8.3870    0.4630 N   0  0  0  0  0  0  0  0  0  0  0  0
   -0.2340    9.1360    0.1530 N   0  0  0  0  0  0  0  0  0  0  0  0
    0.1350   10.4460    0.0210 C   0  0  0  0  0  0  0  0  0  0  0  0
   -3.3270    4.4050    0.0900 C   0  0  0  0  0  0  0  0  0  0  0  0
   -3.2950    3.9700    1.0960 H   0  0  0  0  0  0  0  0  0  0  0  0
   -3.5000    3.6040   -0.6350 H   0  0  0  0  0  0  0  0  0  0  0  0
   -4.1920    5.0760    0.0480 H   0  0  0  0  0  0  0  0  0  0  0  0
   -1.9880    5.9520    0.5700 H   0  0  0  0  0  0  0  0  0  0  0  0
   -2.1630    5.6970   -1.1680 H   0  0  0  0  0  0  0  0  0  0  0  0
   -0.7590   11.4350   -0.0510 C   0  0  0  0  0  0  0  0  0  0  0  0
   -0.2840   12.8150   -0.0900 C   0  0  0  0  0  0  0  0  0  0  0  0
   -1.8260   11.2530   -0.0370 H   0  0  0  0  0  0  0  0  0  0  0  0
    1.2040   10.6640    0.0010 H   0  0  0  0  0  0  0  0  0  0  0  0
   -1.3310   13.6560   -0.0780 O   0  0  0  0  0  0  0  0  0  0  0  0
    0.8660   13.2050   -0.1140 O   0  0  0  0  0  0  0  0  0  0  0  0
   -0.9240   14.5460   -0.0750 H   0  0  0  0  0  0  0  0  0  0  0  0
  1  5  1  0  0  0  0
  2  1  1  0  0  0  0
  3  2  2  0  0  0  0
  4  2  1  1  0  0  0
  4 10  5  0  0  0  0
  6  4  5  0  0  0  0
  6  7  5  0  0  0  0
  6 13  1  0  0  0  0
  7 12  1  1  0  0  0
  8  7  5  0  0  0  0
  8 11  1  6  0  0  0
  9  8  5  0  0  0  0
  9 15  1  0  0  0  0
 10  9  5  0  0  0  0
 10 14  1  0  0  0  0
 12 24  1  0  0  0  0
 12 25  1  0  0  0  0
 16 11  2  0  0  0  0
 17 16  1  0  0  0  0
 18 17  2  0  0  0  0
 19 18  1  0  0  0  0
 19 29  1  0  0  0  0
 20 21  1  0  0  0  0
 20 22  1  0  0  0  0
 20 23  1  0  0  0  0
 20 12  1  0  0  0  0
 26 19  2  0  0  0  0
 26 28  1  0  0  0  0
 27 26  1  0  0  0  0
 27 31  2  0  0  0  0
 30 27  1  0  0  0  0
 32 30  1  0  0  0  0
M  END
