
 OpenBabel11042013063D

 28 28  0  0  1  0  0  0  0  0999 V2000
    0.8340    0.7340    1.0970 O   0  0  0  0  0  0  0  0  0  0  0  0
    0.0950    1.2550    0.1040 C   0  0  0  0  0  0  0  0  0  0  0  0
   -0.5240    0.5460   -0.6660 O   0  0  0  0  0  0  0  0  0  0  0  0
    0.1060    2.7400    0.1070 C   0  0  2  0  0  0  0  0  0  0  0  0
    0.7640   -0.2360    0.9560 H   0  0  0  0  0  0  0  0  0  0  0  0
   -1.1090    3.3650    0.1220 C   0  0  2  0  0  0  0  0  0  0  0  0
   -1.1620    4.7250    0.1370 C   0  0  1  0  0  0  0  0  0  0  0  0
   -0.0130    5.4410    0.1380 C   0  0  1  0  0  0  0  0  0  0  0  0
    1.1690    4.7980    0.1140 C   0  0  0  0  0  0  0  0  0  0  0  0
    1.2680    3.4450    0.0840 C   0  0  2  0  0  0  0  0  0  0  0  0
   -0.0100    6.8720    0.1410 C   0  0  0  0  0  0  0  0  0  0  0  0
   -2.4230    5.4120    0.1500 C   0  0  0  0  0  0  0  0  0  0  0  0
   -2.3380    2.6220    0.1300 C   0  0  0  0  0  0  0  0  0  0  0  0
    2.7050    2.9150    0.0020 C   0  0  0  0  0  0  0  0  0  0  0  0
    2.0820    5.3990    0.1070 H   0  0  0  0  0  0  0  0  0  0  0  0
   -0.0430    8.0720    0.1110 C   0  0  0  0  0  0  0  0  0  0  0  0
   -0.1200    9.5030    0.0460 C   0  0  0  0  0  0  0  0  0  0  0  0
    3.0120    1.5900   -0.6900 C   0  0  0  0  0  0  0  0  0  0  0  0
    2.2600    1.3060   -1.4300 H   0  0  0  0  0  0  0  0  0  0  0  0
    3.9730    1.6580   -1.2120 H   0  0  0  0  0  0  0  0  0  0  0  0
    3.1220    0.7860    0.0450 H   0  0  0  0  0  0  0  0  0  0  0  0
    3.2940    3.6590   -0.5560 H   0  0  0  0  0  0  0  0  0  0  0  0
    3.1340    2.8980    1.0130 H   0  0  0  0  0  0  0  0  0  0  0  0
   -3.4350    5.9780    0.1590 N   0  0  0  0  0  0  0  0  0  0  0  0
   -3.3550    2.0650    0.1510 N   0  0  0  0  0  0  0  0  0  0  0  0
   -1.3770    9.9780    0.0350 O   0  0  0  0  0  0  0  0  0  0  0  0
    0.8600   10.2260   -0.0070 O   0  0  0  0  0  0  0  0  0  0  0  0
   -1.2700   10.9490   -0.0250 H   0  0  0  0  0  0  0  0  0  0  0  0
  1  5  1  0  0  0  0
  2  1  1  0  0  0  0
  3  2  2  0  0  0  0
  4  2  1  6  0  0  0
  4 10  5  0  0  0  0
  6  4  5  0  0  0  0
  6  7  5  0  0  0  0
  6 13  1  1  0  0  0
  7 12  1  6  0  0  0
  8  7  5  0  0  0  0
  8 11  1  6  0  0  0
  9  8  5  0  0  0  0
  9 15  1  0  0  0  0
 10  9  5  0  0  0  0
 10 14  1  6  0  0  0
 12 24  3  0  0  0  0
 13 25  3  0  0  0  0
 14 22  1  0  0  0  0
 14 23  1  0  0  0  0
 16 11  3  0  0  0  0
 17 16  1  0  0  0  0
 17 27  2  0  0  0  0
 18 19  1  0  0  0  0
 18 20  1  0  0  0  0
 18 21  1  0  0  0  0
 18 14  1  0  0  0  0
 26 17  1  0  0  0  0
 28 26  1  0  0  0  0
M  END
