28

O          0.83400        0.73400        1.09700
C          0.09500        1.25500        0.10400
O         -0.52400        0.54600       -0.66600
C          0.10600        2.74000        0.10700
H          0.76400       -0.23600        0.95600
C         -1.10900        3.36500        0.12200
C         -1.16200        4.72500        0.13700
C         -0.01300        5.44100        0.13800
C          1.16900        4.79800        0.11400
C          1.26800        3.44500        0.08400
C         -0.01000        6.87200        0.14100
C         -2.42300        5.41200        0.15000
C         -2.33800        2.62200        0.13000
C          2.70500        2.91500        0.00200
H          2.08200        5.39900        0.10700
C         -0.04300        8.07200        0.11100
C         -0.12000        9.50300        0.04600
C          3.01200        1.59000       -0.69000
H          2.26000        1.30600       -1.43000
H          3.97300        1.65800       -1.21200
H          3.12200        0.78600        0.04500
H          3.29400        3.65900       -0.55600
H          3.13400        2.89800        1.01300
N         -3.43500        5.97800        0.15900
N         -3.35500        2.06500        0.15100
O         -1.37700        9.97800        0.03500
O          0.86000       10.22600       -0.00700
H         -1.27000       10.94900       -0.02500
