
 OpenBabel11042014053D

 34 35  0  0  1  0  0  0  0  0999 V2000
    1.4220    0.2760    0.5400 O   0  0  0  0  0  0  0  0  0  0  0  0
    0.3520    1.0830    0.6890 C   0  0  0  0  0  0  0  0  0  0  0  0
   -0.7560    0.5980    0.8680 O   0  0  0  0  0  0  0  0  0  0  0  0
    0.6040    2.5400    0.4660 C   0  0  2  0  0  0  0  0  0  0  0  0
    2.2800    0.7000    0.3940 H   0  0  0  0  0  0  0  0  0  0  0  0
   -0.4830    3.3200    0.5830 C   0  0  1  0  0  0  0  0  0  0  0  0
   -0.5240    4.5550    0.0340 C   0  0  1  0  0  0  0  0  0  0  0  0
    0.6530    5.2120   -0.1970 C   0  0  2  0  0  0  0  0  0  0  0  0
    1.7730    4.4320   -0.2160 C   0  0  0  0  0  0  0  0  0  0  0  0
    1.7420    3.1030    0.0250 C   0  0  0  0  0  0  0  0  0  0  0  0
    0.7400    6.7280   -0.3060 C   0  0  1  0  0  0  0  0  0  0  0  0
   -2.9080    4.3370   -0.4150 C   0  0  0  0  0  0  0  0  0  0  0  0
   -1.5700    2.8730    1.2570 F   0  0  0  0  0  0  0  0  0  0  0  0
    2.6610    2.5510   -0.1250 H   0  0  0  0  0  0  0  0  0  0  0  0
    2.7500    4.8350   -0.4650 H   0  0  0  0  0  0  0  0  0  0  0  0
   -3.4670    4.6430    0.4670 H   0  0  0  0  0  0  0  0  0  0  0  0
   -3.4940    4.5760   -1.3090 H   0  0  0  0  0  0  0  0  0  0  0  0
   -2.7720    3.2490   -0.4280 H   0  0  0  0  0  0  0  0  0  0  0  0
   -1.7170    5.1230   -0.3910 O   0  0  0  0  0  0  0  0  0  0  0  0
   -0.3170    7.5920   -0.2320 C   0  0  0  0  0  0  0  0  0  0  0  0
   -0.1580    8.9370   -0.1390 C   0  0  0  0  0  0  0  0  0  0  0  0
    1.0770    9.5040   -0.1020 C   0  0  2  0  0  0  0  0  0  0  0  0
    2.1210    8.6550   -0.1900 C   0  0  0  0  0  0  0  0  0  0  0  0
    1.9600    7.3300   -0.3020 C   0  0  0  0  0  0  0  0  0  0  0  0
    1.3990   10.8180    0.0800 N   0  0  0  0  0  0  0  0  0  0  0  0
   -1.0410    9.5690   -0.0360 H   0  0  0  0  0  0  0  0  0  0  0  0
   -1.3440    7.2420   -0.1860 H   0  0  0  0  0  0  0  0  0  0  0  0
    2.8840    6.7660   -0.3120 H   0  0  0  0  0  0  0  0  0  0  0  0
    3.1250    9.0540   -0.1570 H   0  0  0  0  0  0  0  0  0  0  0  0
    0.6180   11.7410   -0.2220 N   0  0  0  0  0  0  0  0  0  0  0  0
    1.2220   12.9510    0.0060 C   0  0  0  0  0  0  0  0  0  0  0  0
    0.3520   13.9690   -0.1440 O   0  0  0  0  0  0  0  0  0  0  0  0
    2.3850   13.2030    0.3060 O   0  0  0  0  0  0  0  0  0  0  0  0
    0.9140   14.7470    0.0470 H   0  0  0  0  0  0  0  0  0  0  0  0
  1  5  1  0  0  0  0
  2  1  1  0  0  0  0
  3  2  2  0  0  0  0
  4  2  1  6  0  0  0
  4 10  5  0  0  0  0
  6  4  5  0  0  0  0
  6  7  5  0  0  0  0
  6 13  1  6  0  0  0
  7 19  1  6  0  0  0
  8  7  5  0  0  0  0
  8  9  5  1  0  0  0
  8 11  1  0  0  0  0
  9 15  1  0  0  0  0
 10  9  5  0  0  0  0
 10 14  1  0  0  0  0
 11 20  5  1  0  0  0
 11 24  5  0  0  0  0
 12 16  1  0  0  0  0
 12 17  1  0  0  0  0
 12 18  1  0  0  0  0
 12 19  1  0  0  0  0
 20 21  5  0  0  0  0
 20 27  1  0  0  0  0
 21 26  1  0  0  0  0
 22 21  5  0  0  0  0
 22 25  1  1  0  0  0
 23 22  5  0  0  0  0
 23 29  1  0  0  0  0
 24 23  5  0  0  0  0
 24 28  1  0  0  0  0
 30 25  2  0  0  0  0
 31 30  1  0  0  0  0
 31 33  2  0  0  0  0
 32 31  1  0  0  0  0
 34 32  1  0  0  0  0
M  END
