
 OpenBabel01202116503D

 34 35  0  0  1  0  0  0  0  0999 V2000
    1.7450   -0.2150    0.0620 O   0  0  0  0  0  0  0  0  0  0  0  0
    0.7090    0.4590   -0.3570 C   0  0  0  0  0  0  0  0  0  0  0  0
   -0.3940   -0.0500   -0.2980 O   0  0  0  0  0  0  0  0  0  0  0  0
    0.8540    1.8720   -0.5080 C   0  0  1  0  0  0  0  0  0  0  0  0
    2.5030    0.4170    0.0000 H   0  0  0  0  0  0  0  0  0  0  0  0
   -0.2100    2.6640   -0.3300 C   0  0  0  0  0  0  0  0  0  0  0  0
   -0.1390    4.0060   -0.3240 C   0  0  2  0  0  0  0  0  0  0  0  0
    1.0900    4.5800   -0.4580 C   0  0  2  0  0  0  0  0  0  0  0  0
    2.1400    3.7790   -0.7560 C   0  0  1  0  0  0  0  0  0  0  0  0
    2.0270    2.4560   -0.7900 C   0  0  2  0  0  0  0  0  0  0  0  0
    1.3430    5.9060   -0.3090 C   0  0  1  0  0  0  0  0  0  0  0  0
   -1.4340    4.7900    0.0020 C   0  0  0  0  0  0  0  0  0  0  0  0
   -1.1620    2.1860   -0.1360 H   0  0  0  0  0  0  0  0  0  0  0  0
    3.6060    1.5160   -1.3150 Br  0  0  0  0  0  0  0  0  0  0  0  0
    3.3390    4.2720   -1.1380 F   0  0  0  0  0  0  0  0  0  0  0  0
   -2.6510    4.0200    0.5670 C   0  0  0  0  0  0  0  0  0  0  0  0
   -3.0490    3.3210   -0.1720 H   0  0  0  0  0  0  0  0  0  0  0  0
   -2.3930    3.4770    1.4780 H   0  0  0  0  0  0  0  0  0  0  0  0
   -3.4520    4.7240    0.8060 H   0  0  0  0  0  0  0  0  0  0  0  0
   -1.8040    5.2550   -0.9130 H   0  0  0  0  0  0  0  0  0  0  0  0
   -1.2160    5.5830    0.7210 H   0  0  0  0  0  0  0  0  0  0  0  0
    0.5230    6.8920   -0.7070 C   0  0  0  0  0  0  0  0  0  0  0  0
    0.8440    8.1750   -0.5420 C   0  0  0  0  0  0  0  0  0  0  0  0
    1.9940    8.5200    0.0470 C   0  0  1  0  0  0  0  0  0  0  0  0
    2.8060    7.5590    0.4790 C   0  0  0  0  0  0  0  0  0  0  0  0
    2.4820    6.2880    0.3040 C   0  0  0  0  0  0  0  0  0  0  0  0
    2.3600    9.8750    0.2090 C   0  0  0  0  0  0  0  0  0  0  0  0
    0.1570    8.9310   -0.9150 H   0  0  0  0  0  0  0  0  0  0  0  0
   -0.3890    6.6930   -1.2510 H   0  0  0  0  0  0  0  0  0  0  0  0
    3.1710    5.5660    0.7330 H   0  0  0  0  0  0  0  0  0  0  0  0
    3.7420    7.7900    0.9820 H   0  0  0  0  0  0  0  0  0  0  0  0
    1.5940   10.8260   -0.2140 O   0  0  0  0  0  0  0  0  0  0  0  0
    3.4260   10.1710    0.7130 O   0  0  0  0  0  0  0  0  0  0  0  0
    2.1410   11.5830    0.0000 H   0  0  0  0  0  0  0  0  0  0  0  0
  1  5  1  0  0  0  0
  2  1  1  0  0  0  0
  3  2  2  0  0  0  0
  4  2  1  1  0  0  0
  4 10  5  0  0  0  0
  6  4  5  0  0  0  0
  6  7  5  0  0  0  0
  6 13  1  0  0  0  0
  7 12  1  1  0  0  0
  8  7  5  0  0  0  0
  8 11  1  1  0  0  0
  9  8  5  0  0  0  0
  9 15  1  6  0  0  0
 10  9  5  0  0  0  0
 10 14  1  6  0  0  0
 11 22  5  1  0  0  0
 11 26  5  0  0  0  0
 12 20  1  0  0  0  0
 12 21  1  0  0  0  0
 16 17  1  0  0  0  0
 16 18  1  0  0  0  0
 16 19  1  0  0  0  0
 16 12  1  0  0  0  0
 22 23  5  0  0  0  0
 22 29  1  0  0  0  0
 23 28  1  0  0  0  0
 24 23  5  0  0  0  0
 24 27  1  6  0  0  0
 25 24  5  0  0  0  0
 25 31  1  0  0  0  0
 26 25  5  0  0  0  0
 26 30  1  0  0  0  0
 27 33  2  0  0  0  0
 32 27  1  0  0  0  0
 34 32  1  0  0  0  0
M  END
