
 OpenBabel04212111313D

 63 67  0  0  1  0  0  0  0  0999 V2000
    1.4690   -0.5040    0.1060 O   0  0  0  0  0  0  0  0  0  0  0  0
    0.2080   -0.0380    0.0300 C   0  0  0  0  0  0  0  0  0  0  0  0
   -0.7370   -0.8060    0.0610 O   0  0  0  0  0  0  0  0  0  0  0  0
   -0.0410    1.3590   -0.0260 C   0  0  0  0  0  0  0  0  0  0  0  0
    2.2260    0.1010    0.0980 H   0  0  0  0  0  0  0  0  0  0  0  0
   -0.2860    2.5220   -0.0740 C   0  0  0  0  0  0  0  0  0  0  0  0
   -0.5770    3.9260   -0.1310 C   0  0  2  0  0  0  0  0  0  0  0  0
    0.6840    4.7600    0.0230 C   0  0  0  0  0  0  0  0  0  0  0  0
    0.2400    5.7390    0.9790 N   0  0  0  0  0  0  0  0  0  0  0  0
   -0.8850    5.2730    1.5930 N   0  0  0  0  0  0  0  0  0  0  0  0
   -1.3580    4.2830    1.0250 N   0  0  0  0  0  0  0  0  0  0  0  0
    0.2790    7.1350    0.6620 C   0  0  2  0  0  0  0  0  0  0  0  0
    1.0300    5.1690   -0.9550 H   0  0  0  0  0  0  0  0  0  0  0  0
    1.5260    4.2270    0.5190 H   0  0  0  0  0  0  0  0  0  0  0  0
   -1.1820    4.2130   -1.0180 H   0  0  0  0  0  0  0  0  0  0  0  0
   -0.6650    7.4530   -0.1220 C   0  0  0  0  0  0  0  0  0  0  0  0
   -0.6590    8.6730   -0.3630 C   0  0  0  0  0  0  0  0  0  0  0  0
    0.4650    9.1440   -0.7030 C   0  0  2  0  0  0  0  0  0  0  0  0
    1.4690    8.6550   -0.0930 C   0  0  0  0  0  0  0  0  0  0  0  0
    1.4000    7.4510    0.1890 C   0  0  0  0  0  0  0  0  0  0  0  0
    0.3890   10.6020   -0.3330 C   0  0  2  0  0  0  0  0  0  0  0  0
   -1.4890    9.0010   -1.0380 H   0  0  0  0  0  0  0  0  0  0  0  0
   -1.6630    7.1980    0.2970 H   0  0  0  0  0  0  0  0  0  0  0  0
    2.2360    7.1950    0.8780 H   0  0  0  0  0  0  0  0  0  0  0  0
    2.3960    8.8390   -0.6920 H   0  0  0  0  0  0  0  0  0  0  0  0
    1.6870   11.3720   -0.3610 C   0  0  0  0  0  0  0  0  0  0  0  0
    1.2630   12.4280    0.4660 N   0  0  0  0  0  0  0  0  0  0  0  0
    0.3080   12.0020    1.3390 N   0  0  0  0  0  0  0  0  0  0  0  0
   -0.1250   10.8980    0.9980 N   0  0  0  0  0  0  0  0  0  0  0  0
    1.1740   13.6280   -0.2420 C   0  0  2  0  0  0  0  0  0  0  0  0
    2.3500   10.8370    0.3450 H   0  0  0  0  0  0  0  0  0  0  0  0
    2.7420   11.0620   -0.2170 H   0  0  0  0  0  0  0  0  0  0  0  0
   -0.3110   11.1240   -1.0340 H   0  0  0  0  0  0  0  0  0  0  0  0
    2.6300   14.0020   -0.4480 C   0  0  0  0  0  0  0  0  0  0  0  0
    2.6970   15.1520    0.4680 C   0  0  2  0  0  0  0  0  0  0  0  0
    1.3620   15.7660    0.4110 N   0  0  0  0  0  0  0  0  0  0  0  0
    0.5280   14.6540    0.5650 N   0  0  0  0  0  0  0  0  0  0  0  0
    3.8540   15.9480    0.1290 N   0  0  0  0  0  0  0  0  0  0  0  0
   -0.4390   14.8560    0.2030 H   0  0  0  0  0  0  0  0  0  0  0  0
    1.1560   16.1510   -0.5450 H   0  0  0  0  0  0  0  0  0  0  0  0
    2.9400   13.9730   -1.5190 H   0  0  0  0  0  0  0  0  0  0  0  0
    2.8290   14.7710    1.5070 H   0  0  0  0  0  0  0  0  0  0  0  0
    3.3750   13.3070   -0.0130 H   0  0  0  0  0  0  0  0  0  0  0  0
    0.6020   13.4940   -1.2000 H   0  0  0  0  0  0  0  0  0  0  0  0
    3.8530   17.1670   -0.0880 N   0  0  0  0  0  0  0  0  0  0  0  0
    2.7340   17.9360    0.0710 C   0  0  0  0  0  0  0  0  0  0  0  0
    1.8380   18.7040    0.1560 C   0  0  0  0  0  0  0  0  0  0  0  0
    1.3840   20.0000   -0.1290 C   0  0  2  0  0  0  0  0  0  0  0  0
    2.5970   20.8780   -0.1960 C   0  0  0  0  0  0  0  0  0  0  0  0
    1.9520   22.1150   -0.0350 N   0  0  0  0  0  0  0  0  0  0  0  0
    0.7010   21.9300    0.5180 N   0  0  0  0  0  0  0  0  0  0  0  0
    0.3750   20.7280    0.5740 N   0  0  0  0  0  0  0  0  0  0  0  0
    2.6310   23.3460   -0.0950 C   0  0  0  0  0  0  0  0  0  0  0  0
    3.2430   20.7310    0.7080 H   0  0  0  0  0  0  0  0  0  0  0  0
    3.1700   20.7130   -1.1320 H   0  0  0  0  0  0  0  0  0  0  0  0
    0.9620   19.9060   -1.1520 H   0  0  0  0  0  0  0  0  0  0  0  0
    1.9100   24.4560   -0.0410 C   0  0  0  0  0  0  0  0  0  0  0  0
    2.4450   25.8100   -0.0440 C   0  0  0  0  0  0  0  0  0  0  0  0
    0.8340   24.3620    0.0060 H   0  0  0  0  0  0  0  0  0  0  0  0
    3.7200   23.3560   -0.1920 H   0  0  0  0  0  0  0  0  0  0  0  0
    1.5510   26.8150    0.0010 O   0  0  0  0  0  0  0  0  0  0  0  0
    3.6470   26.0330   -0.0410 O   0  0  0  0  0  0  0  0  0  0  0  0
    1.8110   27.7410    0.0490 H   0  0  0  0  0  0  0  0  0  0  0  0
  1  5  1  0  0  0  0
  2  1  1  0  0  0  0
  3  2  2  0  0  0  0
  4  2  1  0  0  0  0
  6  4  3  0  0  0  0
  7  6  1  0  0  0  0
  7 11  1  0  0  0  0
  7 15  1  6  0  0  0
  8  7  1  0  0  0  0
  8 13  1  0  0  0  0
  8 14  1  0  0  0  0
  9  8  1  0  0  0  0
 10  9  1  0  0  0  0
 11 10  2  0  0  0  0
 12  9  1  6  0  0  0
 12 20  5  0  0  0  0
 16 12  5  0  0  0  0
 16 17  5  0  0  0  0
 16 23  1  0  0  0  0
 17 22  1  0  0  0  0
 18 17  5  1  0  0  0
 18 21  1  0  0  0  0
 19 18  5  0  0  0  0
 19 25  1  0  0  0  0
 20 19  5  0  0  0  0
 20 24  1  0  0  0  0
 21 29  1  0  0  0  0
 21 33  1  6  0  0  0
 26 21  1  0  0  0  0
 26 31  1  0  0  0  0
 26 32  1  0  0  0  0
 27 26  1  0  0  0  0
 28 27  1  0  0  0  0
 29 28  2  0  0  0  0
 30 27  1  0  0  0  0
 30 37  1  0  0  0  0
 30 44  1  6  0  0  0
 34 30  1  0  0  0  0
 34 41  1  0  0  0  0
 34 43  1  0  0  0  0
 35 34  1  0  0  0  0
 35 42  1  1  0  0  0
 36 35  1  0  0  0  0
 37 36  1  0  0  0  0
 38 35  1  0  0  0  0
 39 37  1  0  0  0  0
 40 36  1  0  0  0  0
 45 38  2  0  0  0  0
 46 45  1  0  0  0  0
 47 46  3  0  0  0  0
 48 47  1  0  0  0  0
 48 52  1  0  0  0  0
 48 56  1  6  0  0  0
 49 48  1  0  0  0  0
 49 54  1  0  0  0  0
 49 55  1  0  0  0  0
 50 49  1  0  0  0  0
 51 50  1  0  0  0  0
 52 51  2  0  0  0  0
 53 50  1  0  0  0  0
 53 60  1  0  0  0  0
 57 53  2  0  0  0  0
 57 59  1  0  0  0  0
 58 57  1  0  0  0  0
 58 62  2  0  0  0  0
 61 58  1  0  0  0  0
 63 61  1  0  0  0  0
M  END
