37

O          1.34700       -0.88200       -0.05300
C          0.20800       -0.24600       -0.40900
O         -0.78200       -0.92300       -0.64300
C          0.25400        1.26900       -0.36200
H          2.11500       -0.30500        0.10000
C         -0.95300        1.90000       -0.34400
C         -1.01600        3.22600       -0.13000
C          0.08200        3.98200        0.08500
C          1.27700        3.37300       -0.06600
C          1.38000        2.03900       -0.29400
C         -0.06200        5.41800        0.57600
H         -2.00200        3.68200       -0.06900
O         -2.15100        1.22200       -0.49100
Br         3.15500        1.39300       -0.45600
H          2.18400        3.96400        0.05200
C          0.82700        6.55100        0.09000
N         -0.12800        7.64000        0.11200
N         -1.41000        7.18000        0.13800
N         -1.42100        5.94300        0.31000
C          0.09800        9.00700        0.06500
H          1.18900        6.41600       -0.93300
H          1.66100        6.72900        0.77600
H          0.03700        5.36400        1.67000
H         -2.93600        1.79300       -0.51400
C         -0.95200        9.86000       -0.02600
C         -0.77900       11.19000       -0.07400
C          0.45200       11.71000       -0.00600
C          1.51500       10.88800        0.09700
C          1.34000        9.54600        0.12900
C          0.67100       13.18100       -0.04700
H         -1.66400       11.82400       -0.15500
H         -1.97100        9.48300       -0.08300
H          2.22100        8.92300        0.22200
H          2.52300       11.29700        0.15600
O         -0.47100       13.89600        0.01900
O          1.75000       13.73900       -0.11800
H         -0.16800       14.82600       -0.00500
