29

O          1.26100        0.45100        0.16000
C          0.02500        0.98900       -0.02300
O         -0.94900        0.26500       -0.11100
C         -0.00000        2.49600       -0.07800
H          1.97700        1.11800        0.09800
C         -1.15800        3.14800        0.18800
C         -1.24300        4.49300        0.03600
C         -0.11100        5.18800       -0.25700
C          1.09200        4.57000       -0.37800
C          1.10500        3.21000       -0.38300
C         -0.17900        6.65100       -0.54200
C         -2.59900        5.16600        0.15800
O         -2.28800        2.45400        0.58800
O          2.27400        2.54100       -0.74100
C          2.43500        5.31600       -0.41400
C          2.58900        6.42600        0.63500
H          1.98600        6.24100        1.53100
H          3.63400        6.50500        0.95700
H          2.31200        7.40200        0.22500
H          3.23800        4.60800       -0.16700
H          2.65700        5.68700       -1.42000
H          2.51700        2.77600       -1.66100
H         -2.39100        2.48100        1.55700
H         -3.43300        4.45700        0.11000
H         -2.68300        5.69700        1.11200
H         -2.77000        5.86600       -0.66700
O         -0.83600        7.36100        0.38800
O          0.31400        7.20000       -1.51400
H         -0.82800        8.27300        0.02500
