
 OpenBabel11042013063D

 30 31  0  0  1  0  0  0  0  0999 V2000
    1.1200    0.6310   -0.1730 O   0  0  0  0  0  0  0  0  0  0  0  0
   -0.0470    1.2970   -0.1500 C   0  0  0  0  0  0  0  0  0  0  0  0
   -1.0770    0.6460   -0.1950 O   0  0  0  0  0  0  0  0  0  0  0  0
   -0.0050    2.8150   -0.0520 C   0  0  1  0  0  0  0  0  0  0  0  0
    1.9360    1.1590   -0.1450 H   0  0  0  0  0  0  0  0  0  0  0  0
   -1.2060    3.4720    0.0020 C   0  0  1  0  0  0  0  0  0  0  0  0
   -1.2450    4.8310    0.1130 C   0  0  2  0  0  0  0  0  0  0  0  0
   -0.1110    5.5860    0.1340 C   0  0  2  0  0  0  0  0  0  0  0  0
    1.0550    4.9060    0.0850 C   0  0  0  0  0  0  0  0  0  0  0  0
    1.1340    3.5580   -0.0050 C   0  0  2  0  0  0  0  0  0  0  0  0
   -0.1380    7.1320    0.2100 C   0  0  1  0  0  0  0  0  0  0  0  0
   -2.8090    5.6380    0.2800 Cl  0  0  0  0  0  0  0  0  0  0  0  0
   -2.4730    2.7870   -0.0600 C   0  0  0  0  0  0  0  0  0  0  0  0
    2.9130    2.8970   -0.0590 Br  0  0  0  0  0  0  0  0  0  0  0  0
    1.9900    5.4630    0.1220 H   0  0  0  0  0  0  0  0  0  0  0  0
    1.1710    7.9260    0.0440 C   0  0  0  0  0  0  0  0  0  0  0  0
    0.7750    9.2430   -0.6220 C   0  0  1  0  0  0  0  0  0  0  0  0
   -0.6730    9.1340   -0.8760 N   0  0  0  0  0  0  0  0  0  0  0  0
   -0.9530    7.7230   -0.8620 N   0  0  0  0  0  0  0  0  0  0  0  0
    1.1100   10.4800    0.2060 C   0  0  0  0  0  0  0  0  0  0  0  0
   -1.9470    7.5290   -0.6990 H   0  0  0  0  0  0  0  0  0  0  0  0
   -1.1720    9.6610   -0.1460 H   0  0  0  0  0  0  0  0  0  0  0  0
    1.8760    7.4220   -0.6270 H   0  0  0  0  0  0  0  0  0  0  0  0
    1.2870    9.3610   -1.5850 H   0  0  0  0  0  0  0  0  0  0  0  0
    1.6620    8.0680    1.0130 H   0  0  0  0  0  0  0  0  0  0  0  0
   -0.5620    7.4050    1.1880 H   0  0  0  0  0  0  0  0  0  0  0  0
   -3.5360    2.3200   -0.1190 N   0  0  0  0  0  0  0  0  0  0  0  0
    0.0700   11.3250    0.3880 O   0  0  0  0  0  0  0  0  0  0  0  0
    2.2070   10.7550    0.6690 O   0  0  0  0  0  0  0  0  0  0  0  0
    0.4640   12.1120    0.8200 H   0  0  0  0  0  0  0  0  0  0  0  0
  1  5  1  0  0  0  0
  2  1  1  0  0  0  0
  3  2  2  0  0  0  0
  4  2  1  1  0  0  0
  4 10  5  0  0  0  0
  6  4  5  0  0  0  0
  6  7  5  0  0  0  0
  6 13  1  6  0  0  0
  7 12  1  1  0  0  0
  8  7  5  0  0  0  0
  8  9  5  1  0  0  0
  8 11  1  0  0  0  0
  9 15  1  0  0  0  0
 10  9  5  0  0  0  0
 10 14  1  6  0  0  0
 11 19  1  0  0  0  0
 11 26  1  1  0  0  0
 13 27  3  0  0  0  0
 16 11  1  0  0  0  0
 16 23  1  0  0  0  0
 16 25  1  0  0  0  0
 17 16  1  0  0  0  0
 17 24  1  6  0  0  0
 18 17  1  0  0  0  0
 19 18  1  0  0  0  0
 20 17  1  0  0  0  0
 20 29  2  0  0  0  0
 21 19  1  0  0  0  0
 22 18  1  0  0  0  0
 28 20  1  0  0  0  0
 30 28  1  0  0  0  0
M  END
