32

O          1.91300        0.18300        0.10700
C          0.66000        0.64200        0.37000
O         -0.21200       -0.16800        0.65400
C          0.47200        2.12700        0.26100
H          2.54800        0.80700       -0.27800
C         -0.76800        2.65800        0.13700
C         -0.90300        3.99300       -0.01100
C          0.13800        4.86000       -0.06300
C          1.38500        4.32300        0.11200
C          1.52100        2.98300        0.28100
C         -0.14300        6.33400       -0.40300
F         -2.16100        4.46400       -0.17300
Cl        -2.24100        1.73100        0.11000
H          2.53100        2.60600        0.42500
C          2.64300        5.16500        0.07700
H          2.64200        5.91700        0.86900
H          3.54500        4.55900        0.23300
H          2.75500        5.64800       -0.89900
O          0.73300        7.32900        0.17300
C         -1.33000        8.40300       -0.18700
C         -1.52000        6.91000       -0.07900
C          0.63100        9.90900        0.38200
H         -2.29900        6.57100       -0.76800
H         -1.78800        8.90300        0.67400
H         -1.80600        8.80900       -1.08700
H         -1.82100        6.65800        0.94600
H          0.47600        8.69400       -1.31200
C          0.18200        8.58800       -0.25800
H          0.01000        6.39800       -1.49200
O         -0.27700       10.90000        0.21400
O          1.70800       10.15200        0.90000
H          0.13700       11.69400        0.61200
