
 OpenBabel11042013063D

 43 44  0  0  1  0  0  0  0  0999 V2000
    1.1310    0.4160   -1.3620 O   0  0  0  0  0  0  0  0  0  0  0  0
    0.1540    0.7520   -0.4940 C   0  0  0  0  0  0  0  0  0  0  0  0
   -0.5300   -0.0810    0.0650 O   0  0  0  0  0  0  0  0  0  0  0  0
    0.1680    2.2460   -0.2100 C   0  0  1  0  0  0  0  0  0  0  0  0
    1.8290   -0.0220   -0.8310 H   0  0  0  0  0  0  0  0  0  0  0  0
   -1.0330    2.8330    0.0760 C   0  0  2  0  0  0  0  0  0  0  0  0
   -1.0140    4.0840    0.5760 C   0  0  0  0  0  0  0  0  0  0  0  0
    0.1220    4.7730    0.7950 C   0  0  2  0  0  0  0  0  0  0  0  0
    1.2690    4.2300    0.3820 C   0  0  0  0  0  0  0  0  0  0  0  0
    1.3370    2.9640   -0.1060 C   0  0  1  0  0  0  0  0  0  0  0  0
    0.0950    5.8140    1.7020 N   0  0  0  0  0  0  0  0  0  0  0  0
   -1.9300    4.5630    0.9020 H   0  0  0  0  0  0  0  0  0  0  0  0
   -2.3810    2.0990   -0.0140 C   0  0  0  0  0  0  0  0  0  0  0  0
    2.7600    2.4590   -0.3400 C   0  0  0  0  0  0  0  0  0  0  0  0
    2.1860    4.7940    0.5540 H   0  0  0  0  0  0  0  0  0  0  0  0
    3.2360    1.5150    0.7630 C   0  0  0  0  0  0  0  0  0  0  0  0
    3.6550    2.0860    1.6000 H   0  0  0  0  0  0  0  0  0  0  0  0
    2.4330    0.8910    1.1650 H   0  0  0  0  0  0  0  0  0  0  0  0
    4.0230    0.8550    0.3840 H   0  0  0  0  0  0  0  0  0  0  0  0
    3.4710    3.2970   -0.3670 H   0  0  0  0  0  0  0  0  0  0  0  0
    2.8650    2.0090   -1.3330 H   0  0  0  0  0  0  0  0  0  0  0  0
    0.2290    7.0330    1.5250 N   0  0  0  0  0  0  0  0  0  0  0  0
    0.2640    7.6740    0.2270 C   0  0  2  0  0  0  0  0  0  0  0  0
   -3.6530    2.9570    0.0280 C   0  0  0  0  0  0  0  0  0  0  0  0
   -3.7440    3.5050    0.9730 H   0  0  0  0  0  0  0  0  0  0  0  0
   -3.6780    3.6760   -0.7980 H   0  0  0  0  0  0  0  0  0  0  0  0
   -4.5410    2.3220   -0.0470 H   0  0  0  0  0  0  0  0  0  0  0  0
   -2.4450    1.4030    0.8320 H   0  0  0  0  0  0  0  0  0  0  0  0
   -2.4290    1.5130   -0.9400 H   0  0  0  0  0  0  0  0  0  0  0  0
    1.0370    8.8930    0.2150 O   0  0  0  0  0  0  0  0  0  0  0  0
   -1.1620    9.5610   -0.2620 C   0  0  0  0  0  0  0  0  0  0  0  0
   -1.1630    8.0550   -0.1680 C   0  0  0  0  0  0  0  0  0  0  0  0
    0.6360   11.3360    0.0300 C   0  0  0  0  0  0  0  0  0  0  0  0
   -1.9220    7.7090    0.5430 H   0  0  0  0  0  0  0  0  0  0  0  0
   -1.5680    9.9910    0.6620 H   0  0  0  0  0  0  0  0  0  0  0  0
   -1.7780    9.9270   -1.0890 H   0  0  0  0  0  0  0  0  0  0  0  0
   -1.4090    7.6090   -1.1360 H   0  0  0  0  0  0  0  0  0  0  0  0
    0.5720    9.8640   -1.5030 H   0  0  0  0  0  0  0  0  0  0  0  0
    0.2970    9.9170   -0.4450 C   0  0  1  0  0  0  0  0  0  0  0  0
    0.7110    7.0300   -0.5390 H   0  0  0  0  0  0  0  0  0  0  0  0
   -0.3870   12.2090   -0.1220 O   0  0  0  0  0  0  0  0  0  0  0  0
    1.7090   11.7380    0.4480 O   0  0  0  0  0  0  0  0  0  0  0  0
   -0.0220   13.0540    0.2170 H   0  0  0  0  0  0  0  0  0  0  0  0
  1  5  1  0  0  0  0
  2  1  1  0  0  0  0
  3  2  2  0  0  0  0
  4  2  1  1  0  0  0
  4 10  5  0  0  0  0
  6  4  5  0  0  0  0
  6  7  5  0  0  0  0
  6 13  1  1  0  0  0
  7 12  1  0  0  0  0
  8  7  5  0  0  0  0
  8 11  1  1  0  0  0
  9  8  5  0  0  0  0
  9 15  1  0  0  0  0
 10  9  5  0  0  0  0
 10 14  1  1  0  0  0
 13 28  1  0  0  0  0
 13 29  1  0  0  0  0
 14 20  1  0  0  0  0
 14 21  1  0  0  0  0
 16 17  1  0  0  0  0
 16 18  1  0  0  0  0
 16 19  1  0  0  0  0
 16 14  1  0  0  0  0
 22 11  2  0  0  0  0
 23 22  1  0  0  0  0
 23 32  1  0  0  0  0
 23 40  1  6  0  0  0
 24 25  1  0  0  0  0
 24 26  1  0  0  0  0
 24 27  1  0  0  0  0
 24 13  1  0  0  0  0
 30 23  1  0  0  0  0
 31 39  1  0  0  0  0
 31 36  1  0  0  0  0
 32 31  1  0  0  0  0
 32 37  1  0  0  0  0
 33 39  1  0  0  0  0
 33 42  2  0  0  0  0
 34 32  1  0  0  0  0
 35 31  1  0  0  0  0
 39 30  1  0  0  0  0
 39 38  1  6  0  0  0
 41 33  1  0  0  0  0
 43 41  1  0  0  0  0
M  END
