43

O          1.13100        0.41600       -1.36200
C          0.15400        0.75200       -0.49400
O         -0.53000       -0.08100        0.06500
C          0.16800        2.24600       -0.21000
H          1.82900       -0.02200       -0.83100
C         -1.03300        2.83300        0.07600
C         -1.01400        4.08400        0.57600
C          0.12200        4.77300        0.79500
C          1.26900        4.23000        0.38200
C          1.33700        2.96400       -0.10600
N          0.09500        5.81400        1.70200
H         -1.93000        4.56300        0.90200
C         -2.38100        2.09900       -0.01400
C          2.76000        2.45900       -0.34000
H          2.18600        4.79400        0.55400
C          3.23600        1.51500        0.76300
H          3.65500        2.08600        1.60000
H          2.43300        0.89100        1.16500
H          4.02300        0.85500        0.38400
H          3.47100        3.29700       -0.36700
H          2.86500        2.00900       -1.33300
N          0.22900        7.03300        1.52500
C          0.26400        7.67400        0.22700
C         -3.65300        2.95700        0.02800
H         -3.74400        3.50500        0.97300
H         -3.67800        3.67600       -0.79800
H         -4.54100        2.32200       -0.04700
H         -2.44500        1.40300        0.83200
H         -2.42900        1.51300       -0.94000
O          1.03700        8.89300        0.21500
C         -1.16200        9.56100       -0.26200
C         -1.16300        8.05500       -0.16800
C          0.63600       11.33600        0.03000
H         -1.92200        7.70900        0.54300
H         -1.56800        9.99100        0.66200
H         -1.77800        9.92700       -1.08900
H         -1.40900        7.60900       -1.13600
H          0.57200        9.86400       -1.50300
C          0.29700        9.91700       -0.44500
H          0.71100        7.03000       -0.53900
O         -0.38700       12.20900       -0.12200
O          1.70900       11.73800        0.44800
H         -0.02200       13.05400        0.21700
