36

O          1.12000       -0.75100       -0.15100
C         -0.03400       -0.09600       -0.39200
O         -1.04400       -0.72200       -0.68500
C         -0.01100        1.39300       -0.20800
H          1.87900       -0.18100        0.07300
C         -1.23700        1.96500       -0.25500
C         -1.40000        3.28000       -0.03000
C         -0.35700        4.08600        0.26700
C          0.88400        3.52600        0.27100
C          1.05900        2.19800        0.01300
C         -0.60400        5.54100        0.67000
H         -2.41800        3.67000       -0.05800
H         -2.13000        1.36800       -0.44900
Cl         2.70200        1.58500       -0.01900
N          2.02500        4.34600        0.59800
C          0.31800        6.63000        0.15100
N         -0.59500        7.75200        0.14700
N         -1.87700        7.28900       -0.01700
N         -1.92200        6.05400        0.21200
C         -0.26900        8.99500       -0.53400
H          1.16700        6.84200        0.80500
H          0.64800        6.44800       -0.87800
H         -0.62800        5.57300        1.76800
H          2.83200        3.76100        0.82900
H          2.33900        4.85700       -0.23000
C          0.92700        9.77100       -0.02100
N          0.42200       11.11600       -0.16400
N         -0.93300       11.14500       -0.26300
N         -1.37000        9.97600       -0.39100
C          1.13900       12.27100       -0.03900
H          1.14500        9.60500        1.04000
H          1.84200        9.61500       -0.60100
H         -0.15000        8.76800       -1.60000
O          0.36600       13.37800       -0.01000
O          2.35300       12.36900        0.05900
H          0.97900       14.12000        0.14900
