45

O          1.22300       -0.62000       -0.00700
C          0.08700        0.10000        0.08000
O         -0.99700       -0.45500        0.11900
C          0.22600        1.57000        0.07800
H          2.03800       -0.11400       -0.12700
C         -0.88700        2.31700       -0.05400
C         -0.78000        3.66000       -0.04900
C          0.43900        4.28800        0.14000
C          1.51800        3.49300        0.25800
C          1.42400        2.15900        0.22400
C          0.57300        5.70700        0.12600
H         -1.69300        4.23000       -0.21000
H         -1.87800        1.87400       -0.17500
H          2.35900        1.63400        0.33300
H          2.51100        3.90400        0.38000
C         -0.49700        6.47200        0.44800
C         -0.49700        7.81000        0.27200
C          0.65000        8.36300       -0.21100
C          1.78000        7.63000       -0.35700
C          1.74000        6.31000       -0.21600
N          0.82800        9.66600       -0.55100
C         -2.87200        7.92700        0.03600
H         -1.40100        6.02100        0.83500
H          2.65700        5.77300       -0.41500
H          2.71100        8.11800       -0.66800
N         -0.16900       10.30200       -0.92900
C         -0.38100       11.38800        0.01400
H         -2.73100        7.14100       -0.71600
H         -3.37200        7.51400        0.91700
H         -3.51100        8.69400       -0.40400
O         -1.66000        8.55500        0.43700
C          0.90700       12.18800        0.26400
C          0.54300       13.60100       -0.13600
N         -0.87100       13.58500       -0.56200
N         -1.39100       12.27800       -0.50400
C          0.85200       15.03500        0.35700
H         -2.25500       12.16500        0.02500
H         -1.39200       14.26500        0.00600
H          1.67100       11.85600       -0.46200
H          1.16900       13.68200       -1.02500
H          1.33300       11.93900        1.24400
H         -0.73600       10.95700        0.96000
O         -0.28000       15.80500        0.40600
O          1.94500       15.58100        0.37100
H         -0.00400       16.69300        0.09000
