37

O         -0.29900        0.36500       -0.57100
C         -1.22500        1.30700       -0.84700
O         -2.33900        0.98700       -1.24400
C         -0.81900        2.73500       -0.56100
H          0.55800        0.76800       -0.32400
C         -1.85500        3.59000       -0.58100
C         -1.66100        4.88800       -0.31500
C         -0.44100        5.38100        0.00600
C          0.61000        4.49900        0.02900
C          0.43900        3.16600       -0.28300
C         -0.35400        6.86800        0.42400
H         -2.54500        5.52000       -0.33800
H         -2.86800        3.25300       -0.79300
C          2.79500        2.30700       -0.10800
N          1.88500        5.00700        0.43100
H          2.53500        4.35700        0.84400
H          1.88800        5.85500        0.98300
H          2.99000        2.45400        0.95800
H          3.26600        1.35700       -0.38200
H          3.24100        3.08300       -0.73500
O          1.40500        2.16700       -0.33200
C          0.64500        7.82100       -0.23800
C          0.21900        9.14100        0.38800
N         -1.25000        9.06200        0.41700
N         -1.59900        7.65900        0.25000
N          0.75500       10.30400       -0.33100
H         -2.28600        7.37300        0.95300
H         -1.58700        9.61200       -0.37900
H          0.54400        7.82900       -1.33100
H          0.58000        9.17200        1.42600
H          1.69200        7.61800        0.00000
H         -0.15000        6.84900        1.50600
N          0.37700       11.37100        0.21600
C          0.92700       12.49000       -0.33900
O          0.12200       13.56300       -0.16500
O          2.00600       12.62900       -0.89400
H          0.64100       14.28800       -0.57600
