26

O          1.68400        0.37300        0.16100
C          0.43800        0.85500        0.36600
O         -0.46200        0.07300        0.63800
C          0.25000        2.34700        0.21100
H          2.38800        1.03700        0.02700
C         -0.99000        2.93100        0.11400
C         -1.05600        4.29000       -0.01600
C          0.06900        5.05300       -0.00700
C          1.28500        4.46500        0.08100
C          1.35100        3.12900        0.19100
C          0.05500        6.54600       -0.06500
O         -2.30100        4.88200       -0.16400
C         -2.25000        2.04100        0.15600
F          2.58500        2.57800        0.27800
O          2.48900        5.16200        0.07200
H          2.37800        6.13300       -0.00900
C         -3.65800        2.60700       -0.02100
H         -3.91500        3.30800        0.77900
H         -3.77600        3.09500       -0.99400
H         -4.38900        1.79200        0.02300
H         -2.14500        1.27600       -0.62300
H         -2.26500        1.54000        1.13400
H         -2.25500        5.84000       -0.35000
O         -1.17200        7.10200       -0.06600
O          1.04300        7.26500       -0.07400
H         -0.99000        8.06700       -0.00900
