
 OpenBabel11042013063D

 26 26  0  0  1  0  0  0  0  0999 V2000
    1.6840    0.3730    0.1610 O   0  0  0  0  0  0  0  0  0  0  0  0
    0.4380    0.8550    0.3660 C   0  0  0  0  0  0  0  0  0  0  0  0
   -0.4620    0.0730    0.6380 O   0  0  0  0  0  0  0  0  0  0  0  0
    0.2500    2.3470    0.2110 C   0  0  1  0  0  0  0  0  0  0  0  0
    2.3880    1.0370    0.0270 H   0  0  0  0  0  0  0  0  0  0  0  0
   -0.9900    2.9310    0.1140 C   0  0  2  0  0  0  0  0  0  0  0  0
   -1.0560    4.2900   -0.0160 C   0  0  1  0  0  0  0  0  0  0  0  0
    0.0690    5.0530   -0.0070 C   0  0  2  0  0  0  0  0  0  0  0  0
    1.2850    4.4650    0.0810 C   0  0  2  0  0  0  0  0  0  0  0  0
    1.3510    3.1290    0.1910 C   0  0  2  0  0  0  0  0  0  0  0  0
    0.0550    6.5460   -0.0650 C   0  0  0  0  0  0  0  0  0  0  0  0
   -2.3010    4.8820   -0.1640 O   0  0  0  0  0  0  0  0  0  0  0  0
   -2.2500    2.0410    0.1560 C   0  0  0  0  0  0  0  0  0  0  0  0
    2.5850    2.5780    0.2780 F   0  0  0  0  0  0  0  0  0  0  0  0
    2.4890    5.1620    0.0720 O   0  0  0  0  0  0  0  0  0  0  0  0
    2.3780    6.1330   -0.0090 H   0  0  0  0  0  0  0  0  0  0  0  0
   -3.6580    2.6070   -0.0210 C   0  0  0  0  0  0  0  0  0  0  0  0
   -3.9150    3.3080    0.7790 H   0  0  0  0  0  0  0  0  0  0  0  0
   -3.7760    3.0950   -0.9940 H   0  0  0  0  0  0  0  0  0  0  0  0
   -4.3890    1.7920    0.0230 H   0  0  0  0  0  0  0  0  0  0  0  0
   -2.1450    1.2760   -0.6230 H   0  0  0  0  0  0  0  0  0  0  0  0
   -2.2650    1.5400    1.1340 H   0  0  0  0  0  0  0  0  0  0  0  0
   -2.2550    5.8400   -0.3500 H   0  0  0  0  0  0  0  0  0  0  0  0
   -1.1720    7.1020   -0.0660 O   0  0  0  0  0  0  0  0  0  0  0  0
    1.0430    7.2650   -0.0740 O   0  0  0  0  0  0  0  0  0  0  0  0
   -0.9900    8.0670   -0.0090 H   0  0  0  0  0  0  0  0  0  0  0  0
  1  5  1  0  0  0  0
  2  1  1  0  0  0  0
  3  2  2  0  0  0  0
  4  2  1  1  0  0  0
  4 10  5  0  0  0  0
  6  4  5  0  0  0  0
  6  7  5  0  0  0  0
  6 13  1  1  0  0  0
  7 12  1  6  0  0  0
  8  7  5  0  0  0  0
  8 11  1  1  0  0  0
  9  8  5  0  0  0  0
  9 15  1  1  0  0  0
 10  9  5  0  0  0  0
 10 14  1  6  0  0  0
 11 25  2  0  0  0  0
 12 23  1  0  0  0  0
 13 21  1  0  0  0  0
 13 22  1  0  0  0  0
 15 16  1  0  0  0  0
 17 18  1  0  0  0  0
 17 19  1  0  0  0  0
 17 20  1  0  0  0  0
 17 13  1  0  0  0  0
 24 11  1  0  0  0  0
 26 24  1  0  0  0  0
M  END
