38

O          1.44700        0.01900        0.33800
C          0.32400        0.74700        0.13400
O         -0.75400        0.18600       -0.00600
C          0.53100        2.23200        0.05200
H          2.24600        0.51600        0.57700
C         -0.52900        3.06000        0.24900
C         -0.33900        4.39100        0.14500
C          0.86700        4.93500       -0.12900
C          1.90400        4.09900       -0.33300
C          1.74100        2.76300       -0.25200
N          1.07900        6.29300       -0.20600
H         -1.18800        5.05700        0.31100
C         -2.81800        2.88200       -0.29900
H          2.61700        2.15600       -0.45100
H          2.88200        4.51200       -0.56200
H         -3.09900        3.93900       -0.23600
H         -2.53700        2.62300       -1.32500
H         -3.69400        2.28900       -0.02200
O         -1.77200        2.57000        0.62000
N          0.35100        6.97900        0.53800
C          0.55700        8.31800        0.43800
C         -0.40600        9.15500        0.02800
C         -0.28400       10.60100       -0.03700
H         -1.37100        8.72700       -0.23800
H          1.53700        8.66500        0.75100
C         -1.40400       11.36000       -0.02200
C         -1.32800       12.70600       -0.04400
C         -0.12400       13.31200       -0.09400
C          0.99700       12.56400       -0.15300
C          0.91400       11.22200       -0.13500
C          0.03800       14.78500       -0.07100
H         -2.24600       13.28600       -0.00900
H         -2.38700       10.89700        0.03300
H          1.84100       10.65800       -0.19000
H          1.97800       13.03000       -0.20800
O         -1.13000       15.45200       -0.01200
O          1.09600       15.39200       -0.07500
H         -0.84700       16.39000        0.02600
