43

O          1.56900       -0.76100        0.19100
C          0.45900       -0.15100       -0.28300
O         -0.39200       -0.77600       -0.89500
C          0.42300        1.32900       -0.04100
H          2.11400       -0.21800        0.78400
C         -0.76100        1.95700        0.10200
C         -0.79100        3.29700        0.23600
C          0.32900        4.07000        0.20500
C          1.51000        3.40900        0.09400
C          1.55600        2.06400       -0.02600
C          0.24600        5.56300        0.20100
H         -1.76600        3.75800        0.35400
O         -1.96000        1.26100        0.08200
H          2.53300        1.60600       -0.16400
H          2.45300        3.94700        0.05900
H         -2.73000        1.82200       -0.11500
C         -0.88500        6.17500       -0.22000
C         -1.03700        7.51400       -0.30600
C          0.01100        8.32400        0.01900
C          1.15600        7.72900        0.43900
C          1.26800        6.38700        0.53700
C         -0.11000        9.83200       -0.15600
C         -2.38700        7.99700       -0.83300
H         -1.73600        5.58200       -0.53800
H          2.22000        5.98800        0.87700
H          2.03200        8.32100        0.69400
C          1.02600       10.78900        0.13100
N          0.24100       11.96300        0.43100
N         -1.00800       11.63600        0.86700
N         -1.18100       10.39700        0.71100
C          0.58100       13.24600        0.10800
H          1.69900       10.95000       -0.71600
H          1.60100       10.54200        1.02900
H         -0.40200       10.00800       -1.20400
C         -3.56600        7.69100        0.09300
H         -3.30800        7.02200        0.92100
H         -3.96600        8.61400        0.52400
H         -4.37400        7.22000       -0.47700
H         -2.56200        7.50500       -1.79900
H         -2.40000        9.06300       -1.07300
O         -0.40600       14.14300        0.31500
O          1.64200       13.61400       -0.37400
H         -0.03700       14.98500       -0.01600
