
 OpenBabel11042013063D

 43 45  0  0  1  0  0  0  0  0999 V2000
    1.5690   -0.7610    0.1910 O   0  0  0  0  0  0  0  0  0  0  0  0
    0.4590   -0.1510   -0.2830 C   0  0  0  0  0  0  0  0  0  0  0  0
   -0.3920   -0.7760   -0.8950 O   0  0  0  0  0  0  0  0  0  0  0  0
    0.4230    1.3290   -0.0410 C   0  0  2  0  0  0  0  0  0  0  0  0
    2.1140   -0.2180    0.7840 H   0  0  0  0  0  0  0  0  0  0  0  0
   -0.7610    1.9570    0.1020 C   0  0  1  0  0  0  0  0  0  0  0  0
   -0.7910    3.2970    0.2360 C   0  0  0  0  0  0  0  0  0  0  0  0
    0.3290    4.0700    0.2050 C   0  0  1  0  0  0  0  0  0  0  0  0
    1.5100    3.4090    0.0940 C   0  0  0  0  0  0  0  0  0  0  0  0
    1.5560    2.0640   -0.0260 C   0  0  0  0  0  0  0  0  0  0  0  0
    0.2460    5.5630    0.2010 C   0  0  2  0  0  0  0  0  0  0  0  0
   -1.7660    3.7580    0.3540 H   0  0  0  0  0  0  0  0  0  0  0  0
   -1.9600    1.2610    0.0820 O   0  0  0  0  0  0  0  0  0  0  0  0
    2.5330    1.6060   -0.1640 H   0  0  0  0  0  0  0  0  0  0  0  0
    2.4530    3.9470    0.0590 H   0  0  0  0  0  0  0  0  0  0  0  0
   -2.7300    1.8220   -0.1150 H   0  0  0  0  0  0  0  0  0  0  0  0
   -0.8850    6.1750   -0.2200 C   0  0  0  0  0  0  0  0  0  0  0  0
   -1.0370    7.5140   -0.3060 C   0  0  1  0  0  0  0  0  0  0  0  0
    0.0110    8.3240    0.0190 C   0  0  1  0  0  0  0  0  0  0  0  0
    1.1560    7.7290    0.4390 C   0  0  0  0  0  0  0  0  0  0  0  0
    1.2680    6.3870    0.5370 C   0  0  0  0  0  0  0  0  0  0  0  0
   -0.1100    9.8320   -0.1560 C   0  0  2  0  0  0  0  0  0  0  0  0
   -2.3870    7.9970   -0.8330 C   0  0  0  0  0  0  0  0  0  0  0  0
   -1.7360    5.5820   -0.5380 H   0  0  0  0  0  0  0  0  0  0  0  0
    2.2200    5.9880    0.8770 H   0  0  0  0  0  0  0  0  0  0  0  0
    2.0320    8.3210    0.6940 H   0  0  0  0  0  0  0  0  0  0  0  0
    1.0260   10.7890    0.1310 C   0  0  0  0  0  0  0  0  0  0  0  0
    0.2410   11.9630    0.4310 N   0  0  0  0  0  0  0  0  0  0  0  0
   -1.0080   11.6360    0.8670 N   0  0  0  0  0  0  0  0  0  0  0  0
   -1.1810   10.3970    0.7110 N   0  0  0  0  0  0  0  0  0  0  0  0
    0.5810   13.2460    0.1080 C   0  0  0  0  0  0  0  0  0  0  0  0
    1.6990   10.9500   -0.7160 H   0  0  0  0  0  0  0  0  0  0  0  0
    1.6010   10.5420    1.0290 H   0  0  0  0  0  0  0  0  0  0  0  0
   -0.4020   10.0080   -1.2040 H   0  0  0  0  0  0  0  0  0  0  0  0
   -3.5660    7.6910    0.0930 C   0  0  0  0  0  0  0  0  0  0  0  0
   -3.3080    7.0220    0.9210 H   0  0  0  0  0  0  0  0  0  0  0  0
   -3.9660    8.6140    0.5240 H   0  0  0  0  0  0  0  0  0  0  0  0
   -4.3740    7.2200   -0.4770 H   0  0  0  0  0  0  0  0  0  0  0  0
   -2.5620    7.5050   -1.7990 H   0  0  0  0  0  0  0  0  0  0  0  0
   -2.4000    9.0630   -1.0730 H   0  0  0  0  0  0  0  0  0  0  0  0
   -0.4060   14.1430    0.3150 O   0  0  0  0  0  0  0  0  0  0  0  0
    1.6420   13.6140   -0.3740 O   0  0  0  0  0  0  0  0  0  0  0  0
   -0.0370   14.9850   -0.0160 H   0  0  0  0  0  0  0  0  0  0  0  0
  1  5  1  0  0  0  0
  2  1  1  0  0  0  0
  3  2  2  0  0  0  0
  4  2  1  6  0  0  0
  4 10  5  0  0  0  0
  6  4  5  0  0  0  0
  6  7  5  0  0  0  0
  6 13  1  6  0  0  0
  7 12  1  0  0  0  0
  8  7  5  6  0  0  0
  8 11  1  0  0  0  0
  9  8  5  0  0  0  0
  9 15  1  0  0  0  0
 10  9  5  0  0  0  0
 10 14  1  0  0  0  0
 11 17  5  6  0  0  0
 11 21  5  0  0  0  0
 13 16  1  0  0  0  0
 17 18  5  0  0  0  0
 17 24  1  0  0  0  0
 18 23  1  6  0  0  0
 19 18  5  0  0  0  0
 19 20  5  6  0  0  0
 19 22  1  0  0  0  0
 20 26  1  0  0  0  0
 21 20  5  0  0  0  0
 21 25  1  0  0  0  0
 22 30  1  0  0  0  0
 22 34  1  6  0  0  0
 23 39  1  0  0  0  0
 23 40  1  0  0  0  0
 27 22  1  0  0  0  0
 27 32  1  0  0  0  0
 27 33  1  0  0  0  0
 28 27  1  0  0  0  0
 29 28  1  0  0  0  0
 30 29  2  0  0  0  0
 31 28  1  0  0  0  0
 31 42  2  0  0  0  0
 35 36  1  0  0  0  0
 35 37  1  0  0  0  0
 35 38  1  0  0  0  0
 35 23  1  0  0  0  0
 41 31  1  0  0  0  0
 43 41  1  0  0  0  0
M  END
