
 OpenBabel11042013063D

 37 39  0  0  1  0  0  0  0  0999 V2000
    1.5830   -0.6270   -0.0470 O   0  0  0  0  0  0  0  0  0  0  0  0
    0.3230   -0.1290    0.0010 C   0  0  0  0  0  0  0  0  0  0  0  0
   -0.6230   -0.9030    0.0440 O   0  0  0  0  0  0  0  0  0  0  0  0
    0.2120    1.3810    0.0260 C   0  0  1  0  0  0  0  0  0  0  0  0
    2.3270   -0.0150   -0.1090 H   0  0  0  0  0  0  0  0  0  0  0  0
   -1.0160    1.9700   -0.0040 C   0  0  1  0  0  0  0  0  0  0  0  0
   -1.1300    3.3260    0.0470 C   0  0  2  0  0  0  0  0  0  0  0  0
   -0.0160    4.1130    0.1080 C   0  0  1  0  0  0  0  0  0  0  0  0
    1.1910    3.5070    0.1400 C   0  0  0  0  0  0  0  0  0  0  0  0
    1.3040    2.1740    0.1010 C   0  0  0  0  0  0  0  0  0  0  0  0
   -0.1160    5.6230    0.1060 C   0  0  1  0  0  0  0  0  0  0  0  0
   -2.8900    4.0740    0.0430 Br  0  0  0  0  0  0  0  0  0  0  0  0
   -2.1690    1.1980   -0.0940 O   0  0  0  0  0  0  0  0  0  0  0  0
    2.3190    1.8030    0.1340 H   0  0  0  0  0  0  0  0  0  0  0  0
    2.1110    4.0760    0.1930 H   0  0  0  0  0  0  0  0  0  0  0  0
   -2.9740    1.7400   -0.1500 H   0  0  0  0  0  0  0  0  0  0  0  0
    1.1380    6.4790    0.1390 C   0  0  0  0  0  0  0  0  0  0  0  0
    0.6870    7.5920   -0.6560 N   0  0  0  0  0  0  0  0  0  0  0  0
   -0.3330    7.1960   -1.4890 N   0  0  0  0  0  0  0  0  0  0  0  0
   -0.7150    6.0470   -1.1800 N   0  0  0  0  0  0  0  0  0  0  0  0
    0.5620    8.8660   -0.1550 C   0  0  2  0  0  0  0  0  0  0  0  0
    1.9820    6.0550   -0.4150 H   0  0  0  0  0  0  0  0  0  0  0  0
    1.4610    6.7600    1.1460 H   0  0  0  0  0  0  0  0  0  0  0  0
   -0.7650    5.9510    0.9320 H   0  0  0  0  0  0  0  0  0  0  0  0
   -0.6650    9.3800    0.0970 C   0  0  0  0  0  0  0  0  0  0  0  0
   -0.8230   10.6900    0.3140 C   0  0  0  0  0  0  0  0  0  0  0  0
    0.2530   11.5050    0.2710 C   0  0  1  0  0  0  0  0  0  0  0  0
    1.4950   10.9830    0.1460 C   0  0  0  0  0  0  0  0  0  0  0  0
    1.6500    9.6580   -0.0540 C   0  0  0  0  0  0  0  0  0  0  0  0
    0.0880   12.9770    0.2310 C   0  0  0  0  0  0  0  0  0  0  0  0
   -1.8280   11.0810    0.4480 H   0  0  0  0  0  0  0  0  0  0  0  0
   -1.5490    8.7480    0.0680 H   0  0  0  0  0  0  0  0  0  0  0  0
    2.6400    9.2590   -0.2350 H   0  0  0  0  0  0  0  0  0  0  0  0
    2.3700   11.6290    0.1290 H   0  0  0  0  0  0  0  0  0  0  0  0
   -1.1970   13.3480    0.0520 O   0  0  0  0  0  0  0  0  0  0  0  0
    0.9840   13.8020    0.2150 O   0  0  0  0  0  0  0  0  0  0  0  0
   -1.1450   14.3060   -0.1320 H   0  0  0  0  0  0  0  0  0  0  0  0
  1  5  1  0  0  0  0
  2  1  1  0  0  0  0
  3  2  2  0  0  0  0
  4  2  1  1  0  0  0
  4 10  5  0  0  0  0
  6  4  5  0  0  0  0
  6  7  5  0  0  0  0
  6 13  1  6  0  0  0
  7 12  1  1  0  0  0
  8  7  5  0  0  0  0
  8  9  5  6  0  0  0
  8 11  1  0  0  0  0
  9 15  1  0  0  0  0
 10  9  5  0  0  0  0
 10 14  1  0  0  0  0
 11 20  1  0  0  0  0
 11 24  1  1  0  0  0
 13 16  1  0  0  0  0
 17 11  1  0  0  0  0
 17 22  1  0  0  0  0
 17 23  1  0  0  0  0
 18 17  1  0  0  0  0
 19 18  1  0  0  0  0
 20 19  2  0  0  0  0
 21 18  1  6  0  0  0
 21 29  5  0  0  0  0
 25 21  5  0  0  0  0
 25 26  5  0  0  0  0
 25 32  1  0  0  0  0
 26 31  1  0  0  0  0
 27 26  5  0  0  0  0
 27 30  1  6  0  0  0
 28 27  5  0  0  0  0
 28 34  1  0  0  0  0
 29 28  5  0  0  0  0
 29 33  1  0  0  0  0
 30 36  2  0  0  0  0
 35 30  1  0  0  0  0
 37 35  1  0  0  0  0
M  END
