36

O          1.25900        0.14000        0.56800
C          0.23800        0.66100       -0.13900
O         -0.53500       -0.10100       -0.70400
C          0.12300        2.17000       -0.19900
H          1.92900        0.78300        0.86100
C         -1.06300        2.67200       -0.65200
C         -1.16000        3.99300       -0.91200
C         -0.18300        4.88100       -0.63000
C          0.91600        4.40200       -0.00200
C          1.10200        3.05500        0.14000
C         -0.45000        6.35900       -0.99500
H         -2.08800        4.35000       -1.35800
C         -2.34900        1.88700       -0.83100
Cl         2.64800        2.54700        0.79500
C          1.49900        5.69100        1.82100
H          1.91300        6.68500        2.00800
H          1.90800        4.99600        2.56000
H          0.41000        5.75200        1.95400
O          1.87500        5.28100        0.49700
H         -3.21900        2.53000       -0.63600
H         -2.45000        1.08700       -0.09100
H         -2.44100        1.48800       -1.84300
O          0.48200        7.30100       -0.44800
C         -1.66300        8.28900       -0.26700
C         -1.83600        6.83100       -0.56400
C          0.33400        9.78800       -0.30300
H         -2.58400        6.66100       -1.34600
H         -1.90300        8.88600       -1.15300
H         -2.32500        8.62200        0.54000
H         -2.17000        6.30900        0.33800
H         -0.07300        8.34200        1.20400
C         -0.20300        8.41800        0.11800
H         -0.35100        6.45000       -2.08500
O         -0.44300       10.79900        0.15400
O          1.33400       10.03800       -0.95300
H         -0.00700       11.60700       -0.19100
