34

O          1.47700       -0.21100        0.00200
C          0.30800        0.46000       -0.02900
O         -0.75900       -0.13600       -0.05300
C          0.42000        1.95000       -0.02600
H          2.28200        0.32500        0.03400
C         -0.75100        2.62000       -0.01900
C         -0.79200        3.96600       -0.02600
C          0.36000        4.68900       -0.01800
C          1.53000        3.99800       -0.03100
C          1.56900        2.65600       -0.04000
C          0.53000        6.13700       -0.01300
N         -2.11800        4.51500       -0.05600
H         -1.69400        2.07400       -0.01900
H          2.55300        2.20800       -0.06000
H          2.48400        4.52500       -0.03800
H         -2.17500        5.24900       -0.76200
H         -2.29300        5.02000        0.81500
C         -0.38800        7.10300        0.08300
C         -0.13600        8.53000        0.05600
H         -1.43700        6.85600        0.17300
H          1.56700        6.45600       -0.08900
C         -1.21600        9.33200       -0.00400
C         -1.08900       10.66000       -0.02800
C          0.13000       11.23100        0.01300
C          1.22800       10.44400        0.07500
C          1.09500        9.10200        0.10100
C          0.29400       12.69700       -0.00900
F         -2.22800       11.38100       -0.09700
H         -2.22300        8.92500       -0.03900
H          2.00300        8.50600        0.15800
H          2.22700       10.87400        0.10700
O         -0.86900       13.36900        0.01200
O          1.35800       13.29400       -0.03500
H         -0.63400       14.31600       -0.01100
