
 OpenBabel11042013063D

 23 23  0  0  1  0  0  0  0  0999 V2000
    1.1170    0.3460    0.1380 O   0  0  0  0  0  0  0  0  0  0  0  0
    0.0870    1.1850   -0.0630 C   0  0  0  0  0  0  0  0  0  0  0  0
   -1.0270    0.6900   -0.2210 O   0  0  0  0  0  0  0  0  0  0  0  0
    0.3000    2.6880   -0.0420 C   0  0  2  0  0  0  0  0  0  0  0  0
    2.0560    0.6000    0.2210 H   0  0  0  0  0  0  0  0  0  0  0  0
   -0.8230    3.4610    0.0290 C   0  0  1  0  0  0  0  0  0  0  0  0
   -0.7390    4.8020    0.0450 C   0  0  0  0  0  0  0  0  0  0  0  0
    0.4470    5.4330   -0.0060 C   0  0  1  0  0  0  0  0  0  0  0  0
    1.5750    4.6930   -0.0850 C   0  0  1  0  0  0  0  0  0  0  0  0
    1.5040    3.3340   -0.1100 C   0  0  2  0  0  0  0  0  0  0  0  0
    0.4250    6.8610    0.0100 C   0  0  0  0  0  0  0  0  0  0  0  0
   -1.6570    5.3900    0.1010 H   0  0  0  0  0  0  0  0  0  0  0  0
   -2.1730    2.9630    0.0810 N   0  0  0  0  0  0  0  0  0  0  0  0
    2.7130    2.5930   -0.2150 C   0  0  0  0  0  0  0  0  0  0  0  0
    3.1290    5.5090   -0.1580 Cl  0  0  0  0  0  0  0  0  0  0  0  0
    3.6010    1.8480   -0.2500 N   0  0  0  0  0  0  0  0  0  0  0  0
    0.2820    8.0540    0.0090 C   0  0  0  0  0  0  0  0  0  0  0  0
    0.0010    9.4590   -0.0080 C   0  0  0  0  0  0  0  0  0  0  0  0
   -2.3650    2.4650   -0.7990 H   0  0  0  0  0  0  0  0  0  0  0  0
   -2.2140    2.1310    0.6860 H   0  0  0  0  0  0  0  0  0  0  0  0
   -1.3140    9.7430   -0.0160 O   0  0  0  0  0  0  0  0  0  0  0  0
    0.8600   10.3230   -0.0230 O   0  0  0  0  0  0  0  0  0  0  0  0
   -1.3470   10.7190   -0.0360 H   0  0  0  0  0  0  0  0  0  0  0  0
  1  5  1  0  0  0  0
  2  1  1  0  0  0  0
  3  2  2  0  0  0  0
  4  2  1  6  0  0  0
  4 10  5  0  0  0  0
  6  4  5  0  0  0  0
  6  7  5  0  0  0  0
  6 13  1  6  0  0  0
  7 12  1  0  0  0  0
  8  7  5  0  0  0  0
  8 11  1  6  0  0  0
  9  8  5  0  0  0  0
  9 15  1  6  0  0  0
 10  9  5  0  0  0  0
 10 14  1  6  0  0  0
 13 19  1  0  0  0  0
 13 20  1  0  0  0  0
 14 16  3  0  0  0  0
 17 11  3  0  0  0  0
 18 17  1  0  0  0  0
 18 22  2  0  0  0  0
 21 18  1  0  0  0  0
 23 21  1  0  0  0  0
M  END
