
 OpenBabel11042013063D

 40 41  0  0  1  0  0  0  0  0999 V2000
    0.9040   -0.2340    1.0200 O   0  0  0  0  0  0  0  0  0  0  0  0
   -0.0970    0.3160    0.3080 C   0  0  0  0  0  0  0  0  0  0  0  0
   -1.0460   -0.3600   -0.0660 O   0  0  0  0  0  0  0  0  0  0  0  0
    0.0030    1.7990    0.0780 C   0  0  2  0  0  0  0  0  0  0  0  0
    1.5310    0.4010    1.3960 H   0  0  0  0  0  0  0  0  0  0  0  0
   -1.2240    2.3670   -0.0410 C   0  0  0  0  0  0  0  0  0  0  0  0
   -1.3670    3.6880   -0.2380 C   0  0  0  0  0  0  0  0  0  0  0  0
   -0.2840    4.4780   -0.3190 C   0  0  2  0  0  0  0  0  0  0  0  0
    0.9350    3.9070   -0.2310 C   0  0  0  0  0  0  0  0  0  0  0  0
    1.1200    2.5790   -0.0270 C   0  0  1  0  0  0  0  0  0  0  0  0
   -0.4080    5.8330   -0.4800 N   0  0  0  0  0  0  0  0  0  0  0  0
   -2.3600    4.1240   -0.3170 H   0  0  0  0  0  0  0  0  0  0  0  0
   -2.1340    1.7700    0.0290 H   0  0  0  0  0  0  0  0  0  0  0  0
    2.5760    2.1430    0.0760 C   0  0  0  0  0  0  0  0  0  0  0  0
    1.7930    4.5740   -0.3120 H   0  0  0  0  0  0  0  0  0  0  0  0
   -0.1330    6.4690    0.5620 N   0  0  0  0  0  0  0  0  0  0  0  0
   -0.0450    7.8220    0.3800 C   0  0  1  0  0  0  0  0  0  0  0  0
    3.0310    1.0770   -0.9090 C   0  0  0  0  0  0  0  0  0  0  0  0
    3.3060    1.5320   -1.8660 H   0  0  0  0  0  0  0  0  0  0  0  0
    2.2750    0.3150   -1.1060 H   0  0  0  0  0  0  0  0  0  0  0  0
    3.9220    0.5750   -0.5150 H   0  0  0  0  0  0  0  0  0  0  0  0
    3.2460    3.0030   -0.0720 H   0  0  0  0  0  0  0  0  0  0  0  0
    2.7830    1.8360    1.1070 H   0  0  0  0  0  0  0  0  0  0  0  0
   -1.1460    8.5890    0.2360 C   0  0  0  0  0  0  0  0  0  0  0  0
   -1.0390    9.9180    0.0610 C   0  0  0  0  0  0  0  0  0  0  0  0
    0.1740   10.5220    0.0400 C   0  0  1  0  0  0  0  0  0  0  0  0
    1.2720    9.7490    0.1780 C   0  0  0  0  0  0  0  0  0  0  0  0
    1.1640    8.4180    0.3580 C   0  0  0  0  0  0  0  0  0  0  0  0
    0.3390   11.9610   -0.1320 C   0  0  0  0  0  0  0  0  0  0  0  0
   -1.9620   10.4770   -0.0600 H   0  0  0  0  0  0  0  0  0  0  0  0
   -2.1270    8.1260    0.2570 H   0  0  0  0  0  0  0  0  0  0  0  0
    2.0590    7.8130    0.4760 H   0  0  0  0  0  0  0  0  0  0  0  0
    2.2730   10.1810    0.1650 H   0  0  0  0  0  0  0  0  0  0  0  0
   -0.6470   12.8690   -0.0960 C   0  0  0  0  0  0  0  0  0  0  0  0
   -0.3490   14.2990   -0.1930 C   0  0  0  0  0  0  0  0  0  0  0  0
   -1.6910   12.6110    0.0390 H   0  0  0  0  0  0  0  0  0  0  0  0
    1.3650   12.3140   -0.2590 H   0  0  0  0  0  0  0  0  0  0  0  0
   -1.4830   15.0040   -0.0420 O   0  0  0  0  0  0  0  0  0  0  0  0
    0.7330   14.8240   -0.3530 O   0  0  0  0  0  0  0  0  0  0  0  0
   -1.1870   15.9380   -0.0840 H   0  0  0  0  0  0  0  0  0  0  0  0
  1  5  1  0  0  0  0
  2  1  1  0  0  0  0
  3  2  2  0  0  0  0
  4  2  1  6  0  0  0
  4 10  5  0  0  0  0
  6  4  5  0  0  0  0
  6  7  5  0  0  0  0
  6 13  1  0  0  0  0
  7 12  1  0  0  0  0
  8  7  5  0  0  0  0
  8 11  1  1  0  0  0
  9  8  5  0  0  0  0
  9 15  1  0  0  0  0
 10  9  5  0  0  0  0
 10 14  1  1  0  0  0
 14 22  1  0  0  0  0
 14 23  1  0  0  0  0
 16 11  2  0  0  0  0
 17 16  1  1  0  0  0
 17 28  5  0  0  0  0
 18 19  1  0  0  0  0
 18 20  1  0  0  0  0
 18 21  1  0  0  0  0
 18 14  1  0  0  0  0
 24 17  5  0  0  0  0
 24 25  5  0  0  0  0
 24 31  1  0  0  0  0
 25 30  1  0  0  0  0
 26 25  5  0  0  0  0
 26 29  1  6  0  0  0
 27 26  5  0  0  0  0
 27 33  1  0  0  0  0
 28 27  5  0  0  0  0
 28 32  1  0  0  0  0
 29 37  1  0  0  0  0
 34 29  2  0  0  0  0
 34 36  1  0  0  0  0
 35 34  1  0  0  0  0
 35 39  2  0  0  0  0
 38 35  1  0  0  0  0
 40 38  1  0  0  0  0
M  END
