48

O          1.38600       -1.46100        0.42700
C          0.18900       -0.97000        0.03900
O         -0.79900       -1.68200       -0.05900
C          0.17600        0.50500       -0.18900
H          2.04200       -0.78700        0.67500
C         -1.01800        1.11700       -0.05900
C         -1.10400        2.45100       -0.17700
C         -0.00500        3.21300       -0.40600
C          1.17200        2.58100       -0.60600
C          1.26400        1.23800       -0.50400
C         -0.16600        4.73000       -0.34900
H         -2.08100        2.91500       -0.03800
H         -1.92000        0.55000        0.17100
H          2.23700        0.78200       -0.66500
H          2.07800        3.14000       -0.82700
C          1.05200        5.61200       -0.11100
N          0.58400        6.49200        0.95800
N         -0.55000        5.97000        1.52500
N         -0.99900        5.02700        0.84200
C          0.57600        7.87800        0.77700
H          1.32100        6.17400       -1.01400
H          1.93100        5.08000        0.26100
H         -0.69700        5.07400       -1.24800
C         -0.61600        8.51400        0.73900
C         -0.71000        9.81100        0.42900
C          0.38600       10.54700        0.16300
C          1.59300        9.94100        0.28700
C          1.70000        8.62000        0.58000
C          0.25700       11.95700       -0.38000
H         -1.71400       10.21900        0.35600
H         -1.55000        7.97700        0.89400
C          3.00500        8.03400        0.65800
H          2.49400       10.52900        0.10800
N          4.05900        7.54600        0.68100
O          0.99000       12.95400        0.34500
C         -0.88200       14.02000       -0.64400
C         -1.14500       12.54800       -0.45200
C          0.79900       15.48700        0.52900
H         -1.74600       12.11300       -1.25600
H         -1.04400       14.32400       -1.68400
H         -1.56700       14.61000       -0.02500
H         -1.68400       12.41800        0.49500
H          1.19700       14.30100       -1.16500
C          0.58800       14.19600       -0.25700
H          0.67600       11.93000       -1.39700
O          0.27100       16.55700       -0.11200
O          1.40900       15.63700        1.57500
H          0.50100       17.32100        0.45800
