
 OpenBabel11042013063D

 48 51  0  0  1  0  0  0  0  0999 V2000
    1.3860   -1.4610    0.4270 O   0  0  0  0  0  0  0  0  0  0  0  0
    0.1890   -0.9700    0.0390 C   0  0  0  0  0  0  0  0  0  0  0  0
   -0.7990   -1.6820   -0.0590 O   0  0  0  0  0  0  0  0  0  0  0  0
    0.1760    0.5050   -0.1890 C   0  0  1  0  0  0  0  0  0  0  0  0
    2.0420   -0.7870    0.6750 H   0  0  0  0  0  0  0  0  0  0  0  0
   -1.0180    1.1170   -0.0590 C   0  0  0  0  0  0  0  0  0  0  0  0
   -1.1040    2.4510   -0.1770 C   0  0  0  0  0  0  0  0  0  0  0  0
   -0.0050    3.2130   -0.4060 C   0  0  2  0  0  0  0  0  0  0  0  0
    1.1720    2.5810   -0.6060 C   0  0  0  0  0  0  0  0  0  0  0  0
    1.2640    1.2380   -0.5040 C   0  0  0  0  0  0  0  0  0  0  0  0
   -0.1660    4.7300   -0.3490 C   0  0  2  0  0  0  0  0  0  0  0  0
   -2.0810    2.9150   -0.0380 H   0  0  0  0  0  0  0  0  0  0  0  0
   -1.9200    0.5500    0.1710 H   0  0  0  0  0  0  0  0  0  0  0  0
    2.2370    0.7820   -0.6650 H   0  0  0  0  0  0  0  0  0  0  0  0
    2.0780    3.1400   -0.8270 H   0  0  0  0  0  0  0  0  0  0  0  0
    1.0520    5.6120   -0.1110 C   0  0  0  0  0  0  0  0  0  0  0  0
    0.5840    6.4920    0.9580 N   0  0  0  0  0  0  0  0  0  0  0  0
   -0.5500    5.9700    1.5250 N   0  0  0  0  0  0  0  0  0  0  0  0
   -0.9990    5.0270    0.8420 N   0  0  0  0  0  0  0  0  0  0  0  0
    0.5760    7.8780    0.7770 C   0  0  2  0  0  0  0  0  0  0  0  0
    1.3210    6.1740   -1.0140 H   0  0  0  0  0  0  0  0  0  0  0  0
    1.9310    5.0800    0.2610 H   0  0  0  0  0  0  0  0  0  0  0  0
   -0.6970    5.0740   -1.2480 H   0  0  0  0  0  0  0  0  0  0  0  0
   -0.6160    8.5140    0.7390 C   0  0  0  0  0  0  0  0  0  0  0  0
   -0.7100    9.8110    0.4290 C   0  0  0  0  0  0  0  0  0  0  0  0
    0.3860   10.5470    0.1630 C   0  0  1  0  0  0  0  0  0  0  0  0
    1.5930    9.9410    0.2870 C   0  0  0  0  0  0  0  0  0  0  0  0
    1.7000    8.6200    0.5800 C   0  0  2  0  0  0  0  0  0  0  0  0
    0.2570   11.9570   -0.3800 C   0  0  2  0  0  0  0  0  0  0  0  0
   -1.7140   10.2190    0.3560 H   0  0  0  0  0  0  0  0  0  0  0  0
   -1.5500    7.9770    0.8940 H   0  0  0  0  0  0  0  0  0  0  0  0
    3.0050    8.0340    0.6580 C   0  0  0  0  0  0  0  0  0  0  0  0
    2.4940   10.5290    0.1080 H   0  0  0  0  0  0  0  0  0  0  0  0
    4.0590    7.5460    0.6810 N   0  0  0  0  0  0  0  0  0  0  0  0
    0.9900   12.9540    0.3450 O   0  0  0  0  0  0  0  0  0  0  0  0
   -0.8820   14.0200   -0.6440 C   0  0  0  0  0  0  0  0  0  0  0  0
   -1.1450   12.5480   -0.4520 C   0  0  0  0  0  0  0  0  0  0  0  0
    0.7990   15.4870    0.5290 C   0  0  0  0  0  0  0  0  0  0  0  0
   -1.7460   12.1130   -1.2560 H   0  0  0  0  0  0  0  0  0  0  0  0
   -1.0440   14.3240   -1.6840 H   0  0  0  0  0  0  0  0  0  0  0  0
   -1.5670   14.6100   -0.0250 H   0  0  0  0  0  0  0  0  0  0  0  0
   -1.6840   12.4180    0.4950 H   0  0  0  0  0  0  0  0  0  0  0  0
    1.1970   14.3010   -1.1650 H   0  0  0  0  0  0  0  0  0  0  0  0
    0.5880   14.1960   -0.2570 C   0  0  1  0  0  0  0  0  0  0  0  0
    0.6760   11.9300   -1.3970 H   0  0  0  0  0  0  0  0  0  0  0  0
    0.2710   16.5570   -0.1120 O   0  0  0  0  0  0  0  0  0  0  0  0
    1.4090   15.6370    1.5750 O   0  0  0  0  0  0  0  0  0  0  0  0
    0.5010   17.3210    0.4580 H   0  0  0  0  0  0  0  0  0  0  0  0
  1  5  1  0  0  0  0
  2  1  1  0  0  0  0
  3  2  2  0  0  0  0
  4  2  1  1  0  0  0
  4 10  5  0  0  0  0
  6  4  5  0  0  0  0
  6  7  5  0  0  0  0
  6 13  1  0  0  0  0
  7 12  1  0  0  0  0
  8  7  5  1  0  0  0
  8 11  1  0  0  0  0
  9  8  5  0  0  0  0
  9 15  1  0  0  0  0
 10  9  5  0  0  0  0
 10 14  1  0  0  0  0
 11 19  1  0  0  0  0
 11 23  1  6  0  0  0
 16 11  1  0  0  0  0
 16 21  1  0  0  0  0
 16 22  1  0  0  0  0
 17 16  1  0  0  0  0
 18 17  1  0  0  0  0
 19 18  2  0  0  0  0
 20 17  1  6  0  0  0
 20 28  5  0  0  0  0
 24 20  5  0  0  0  0
 24 25  5  0  0  0  0
 24 31  1  0  0  0  0
 25 30  1  0  0  0  0
 26 25  5  6  0  0  0
 26 29  1  0  0  0  0
 27 26  5  0  0  0  0
 27 33  1  0  0  0  0
 28 27  5  0  0  0  0
 28 32  1  6  0  0  0
 29 37  1  0  0  0  0
 29 45  1  6  0  0  0
 32 34  3  0  0  0  0
 35 29  1  0  0  0  0
 36 44  1  0  0  0  0
 36 41  1  0  0  0  0
 37 36  1  0  0  0  0
 37 42  1  0  0  0  0
 38 44  1  0  0  0  0
 38 47  2  0  0  0  0
 39 37  1  0  0  0  0
 40 36  1  0  0  0  0
 44 35  1  0  0  0  0
 44 43  1  6  0  0  0
 46 38  1  0  0  0  0
 48 46  1  0  0  0  0
M  END
