53

O          0.90800        0.35100        0.13000
C         -0.23500        1.06500        0.09900
O         -1.32300        0.50300        0.09900
C         -0.08200        2.57500        0.01400
H          1.74100        0.84300        0.11900
C         -1.22300        3.29400       -0.01800
C         -1.20100        4.64700       -0.13700
C         -0.02900        5.34100       -0.23900
C          1.09600        4.60800       -0.19500
C          1.08100        3.25600       -0.06100
C         -0.02900        6.88000       -0.52600
H         -2.16000        5.15200       -0.16500
H         -2.19300        2.78600        0.05700
H          2.03800        2.76400       -0.03300
H          2.06900        5.08100       -0.27200
C          1.27100        7.72800       -0.36200
C          0.83000        9.15400        0.05500
N         -0.63300        9.03700        0.05100
N         -0.96100        7.64800        0.32500
C          1.20500       10.50300       -0.54900
H         -1.91700        7.44600        0.01800
H         -1.04600        9.69800        0.70900
H          1.92100        7.65700       -1.23700
H          1.23800        9.25000        1.07200
H          1.80900        7.29000        0.49500
H         -0.35900        6.98500       -1.57100
C          1.31700       11.72100       -0.57000
C          1.25800       13.13800       -0.00500
O          1.87200       14.35300       -0.64600
C         -0.05100       15.10600        0.38400
C         -0.16900       13.60100        0.26000
C          1.62300       17.03700        0.21400
H         -0.83900       13.36100       -0.57500
H         -0.49300       15.50400        1.30100
H         -0.59400       15.53500       -0.46800
H         -0.59800       13.15600        1.16200
H          1.96100       15.17400        1.20900
C          1.44600       15.43200        0.27200
H          1.77400       13.04900        0.96100
O          2.76600       17.75400       -0.30300
C          0.88200       19.23900       -0.25800
C          0.41000       17.82300       -0.26900
C          3.04000       20.38300        0.15700
H         -0.44700       17.71200        0.40000
H          0.68700       19.67900        0.73200
H          0.36000       19.86400       -0.98900
H          0.12700       17.53400       -1.28500
H          2.56400       19.31700       -1.60700
C          2.37800       19.14500       -0.54000
H          1.68800       17.27700        1.28900
O          2.26700       21.50400        0.03900
O          4.11800       20.45200        0.72200
H          2.72900       22.22700        0.51600
