
 OpenBabel11042013063D

 33 34  0  0  1  0  0  0  0  0999 V2000
    0.8870    0.0050   -0.1930 O   0  0  0  0  0  0  0  0  0  0  0  0
   -0.3100    0.6130   -0.3150 C   0  0  0  0  0  0  0  0  0  0  0  0
   -1.3220   -0.0380   -0.5370 O   0  0  0  0  0  0  0  0  0  0  0  0
   -0.3150    2.1060   -0.1500 C   0  0  1  0  0  0  0  0  0  0  0  0
    1.6450    0.5460    0.0760 H   0  0  0  0  0  0  0  0  0  0  0  0
   -1.5310    2.6940   -0.1810 C   0  0  0  0  0  0  0  0  0  0  0  0
   -1.6690    4.0260   -0.0040 C   0  0  2  0  0  0  0  0  0  0  0  0
   -0.5730    4.8220    0.2030 C   0  0  2  0  0  0  0  0  0  0  0  0
    0.6510    4.2220    0.2260 C   0  0  2  0  0  0  0  0  0  0  0  0
    0.7630    2.8850    0.0540 C   0  0  0  0  0  0  0  0  0  0  0  0
   -0.7720    6.3210    0.4460 C   0  0  1  0  0  0  0  0  0  0  0  0
   -3.0150    4.5380    0.0070 C   0  0  0  0  0  0  0  0  0  0  0  0
   -2.4230    2.0840   -0.3290 H   0  0  0  0  0  0  0  0  0  0  0  0
    1.7590    2.4650    0.1090 H   0  0  0  0  0  0  0  0  0  0  0  0
    2.7750    5.0310   -0.4740 C   0  0  0  0  0  0  0  0  0  0  0  0
    2.7550    4.1910   -1.1750 H   0  0  0  0  0  0  0  0  0  0  0  0
    2.6500    5.9630   -1.0310 H   0  0  0  0  0  0  0  0  0  0  0  0
    3.7530    5.0590    0.0150 H   0  0  0  0  0  0  0  0  0  0  0  0
    1.7800    4.9580    0.5490 O   0  0  0  0  0  0  0  0  0  0  0  0
    0.3490    7.3480    0.5740 C   0  0  0  0  0  0  0  0  0  0  0  0
   -0.4390    8.5040    0.2270 N   0  0  0  0  0  0  0  0  0  0  0  0
   -1.3670    8.1810   -0.7160 N   0  0  0  0  0  0  0  0  0  0  0  0
   -1.5290    6.9330   -0.6800 N   0  0  0  0  0  0  0  0  0  0  0  0
    0.0740    9.8520    0.2140 C   0  0  0  0  0  0  0  0  0  0  0  0
    1.1370    7.2310   -0.1720 H   0  0  0  0  0  0  0  0  0  0  0  0
    0.7790    7.3940    1.5790 H   0  0  0  0  0  0  0  0  0  0  0  0
   -1.3910    6.4100    1.3530 H   0  0  0  0  0  0  0  0  0  0  0  0
    0.2780   11.0350    0.1830 C   0  0  0  0  0  0  0  0  0  0  0  0
    0.2830   12.4640    0.1200 C   0  0  0  0  0  0  0  0  0  0  0  0
   -4.1090    4.9180    0.0450 N   0  0  0  0  0  0  0  0  0  0  0  0
   -0.9550   12.9970    0.1220 O   0  0  0  0  0  0  0  0  0  0  0  0
    1.2920   13.1430    0.0660 O   0  0  0  0  0  0  0  0  0  0  0  0
   -0.8130   13.9620    0.0590 H   0  0  0  0  0  0  0  0  0  0  0  0
  1  5  1  0  0  0  0
  2  1  1  0  0  0  0
  3  2  2  0  0  0  0
  4  2  1  1  0  0  0
  4 10  5  0  0  0  0
  6  4  5  0  0  0  0
  6  7  5  0  0  0  0
  6 13  1  0  0  0  0
  7 12  1  1  0  0  0
  8  7  5  0  0  0  0
  8 11  1  1  0  0  0
  9  8  5  0  0  0  0
  9 19  1  1  0  0  0
 10  9  5  0  0  0  0
 10 14  1  0  0  0  0
 11 23  1  0  0  0  0
 11 27  1  1  0  0  0
 12 30  3  0  0  0  0
 15 16  1  0  0  0  0
 15 17  1  0  0  0  0
 15 18  1  0  0  0  0
 15 19  1  0  0  0  0
 20 11  1  0  0  0  0
 20 25  1  0  0  0  0
 20 26  1  0  0  0  0
 21 20  1  0  0  0  0
 22 21  1  0  0  0  0
 23 22  2  0  0  0  0
 24 21  1  0  0  0  0
 28 24  3  0  0  0  0
 29 28  1  0  0  0  0
 29 32  2  0  0  0  0
 31 29  1  0  0  0  0
 33 31  1  0  0  0  0
M  END
