33

O          0.88700        0.00500       -0.19300
C         -0.31000        0.61300       -0.31500
O         -1.32200       -0.03800       -0.53700
C         -0.31500        2.10600       -0.15000
H          1.64500        0.54600        0.07600
C         -1.53100        2.69400       -0.18100
C         -1.66900        4.02600       -0.00400
C         -0.57300        4.82200        0.20300
C          0.65100        4.22200        0.22600
C          0.76300        2.88500        0.05400
C         -0.77200        6.32100        0.44600
C         -3.01500        4.53800        0.00700
H         -2.42300        2.08400       -0.32900
H          1.75900        2.46500        0.10900
C          2.77500        5.03100       -0.47400
H          2.75500        4.19100       -1.17500
H          2.65000        5.96300       -1.03100
H          3.75300        5.05900        0.01500
O          1.78000        4.95800        0.54900
C          0.34900        7.34800        0.57400
N         -0.43900        8.50400        0.22700
N         -1.36700        8.18100       -0.71600
N         -1.52900        6.93300       -0.68000
C          0.07400        9.85200        0.21400
H          1.13700        7.23100       -0.17200
H          0.77900        7.39400        1.57900
H         -1.39100        6.41000        1.35300
C          0.27800       11.03500        0.18300
C          0.28300       12.46400        0.12000
N         -4.10900        4.91800        0.04500
O         -0.95500       12.99700        0.12200
O          1.29200       13.14300        0.06600
H         -0.81300       13.96200        0.05900
