
 OpenBabel11042013063D

 46 48  0  0  1  0  0  0  0  0999 V2000
    1.3160    0.6540    0.1070 O   0  0  0  0  0  0  0  0  0  0  0  0
    0.2230    1.3980    0.3750 C   0  0  0  0  0  0  0  0  0  0  0  0
   -0.8580    0.8930    0.6370 O   0  0  0  0  0  0  0  0  0  0  0  0
    0.4410    2.8720    0.2570 C   0  0  1  0  0  0  0  0  0  0  0  0
    2.0500    1.1530   -0.2930 H   0  0  0  0  0  0  0  0  0  0  0  0
   -0.6320    3.5890   -0.1090 C   0  0  0  0  0  0  0  0  0  0  0  0
   -0.5650    4.9250   -0.2810 C   0  0  1  0  0  0  0  0  0  0  0  0
    0.6310    5.5940   -0.1280 C   0  0  1  0  0  0  0  0  0  0  0  0
    1.6920    4.8500    0.2860 C   0  0  1  0  0  0  0  0  0  0  0  0
    1.5990    3.5160    0.4860 C   0  0  0  0  0  0  0  0  0  0  0  0
    0.7250    7.1030   -0.5190 C   0  0  2  0  0  0  0  0  0  0  0  0
   -2.8680    5.3340    0.1280 C   0  0  0  0  0  0  0  0  0  0  0  0
   -1.5700    3.0700   -0.2950 H   0  0  0  0  0  0  0  0  0  0  0  0
    2.4730    2.9570    0.8090 H   0  0  0  0  0  0  0  0  0  0  0  0
    2.9700    5.4360    0.4810 N   0  0  0  0  0  0  0  0  0  0  0  0
   -3.3100    4.3630   -0.1140 H   0  0  0  0  0  0  0  0  0  0  0  0
   -2.6260    5.3920    1.1950 H   0  0  0  0  0  0  0  0  0  0  0  0
   -3.6170    6.1000   -0.0930 H   0  0  0  0  0  0  0  0  0  0  0  0
   -1.7170    5.5930   -0.6860 O   0  0  0  0  0  0  0  0  0  0  0  0
    3.6070    4.9900    1.1290 H   0  0  0  0  0  0  0  0  0  0  0  0
    2.9810    6.4530    0.5670 H   0  0  0  0  0  0  0  0  0  0  0  0
    1.8060    7.9900   -0.0060 O   0  0  0  0  0  0  0  0  0  0  0  0
   -0.0400    9.3760   -0.2790 C   0  0  0  0  0  0  0  0  0  0  0  0
   -0.5260    7.9530   -0.2990 C   0  0  0  0  0  0  0  0  0  0  0  0
    2.1920   10.6550   -0.4120 C   0  0  2  0  0  0  0  0  0  0  0  0
   -1.0160    7.7230    0.6540 H   0  0  0  0  0  0  0  0  0  0  0  0
   -0.5740   10.0010   -1.0000 H   0  0  0  0  0  0  0  0  0  0  0  0
   -0.2160    9.7720    0.7260 H   0  0  0  0  0  0  0  0  0  0  0  0
   -1.2510    7.8290   -1.1090 H   0  0  0  0  0  0  0  0  0  0  0  0
    1.5430    9.1040   -1.6750 H   0  0  0  0  0  0  0  0  0  0  0  0
    1.4470    9.2790   -0.5920 C   0  0  1  0  0  0  0  0  0  0  0  0
    0.9160    7.0540   -1.6020 H   0  0  0  0  0  0  0  0  0  0  0  0
    3.3870   10.8010    0.3680 O   0  0  0  0  0  0  0  0  0  0  0  0
    2.2730   12.9240    0.1990 C   0  0  0  0  0  0  0  0  0  0  0  0
    1.2980   11.7960    0.0720 C   0  0  0  0  0  0  0  0  0  0  0  0
    4.7370   12.9930    0.0520 C   0  0  0  0  0  0  0  0  0  0  0  0
    0.4850   12.0360   -0.6170 H   0  0  0  0  0  0  0  0  0  0  0  0
    2.4050   13.4040   -0.7800 H   0  0  0  0  0  0  0  0  0  0  0  0
    1.9410   13.7000    0.8960 H   0  0  0  0  0  0  0  0  0  0  0  0
    0.8880   11.5850    1.0660 H   0  0  0  0  0  0  0  0  0  0  0  0
    3.6580   12.2940    1.7500 H   0  0  0  0  0  0  0  0  0  0  0  0
    3.5490   12.2200    0.6620 C   0  0  2  0  0  0  0  0  0  0  0  0
    2.5100   10.9240   -1.4310 H   0  0  0  0  0  0  0  0  0  0  0  0
    4.6620   14.3250    0.3170 O   0  0  0  0  0  0  0  0  0  0  0  0
    5.6630   12.5580   -0.6110 O   0  0  0  0  0  0  0  0  0  0  0  0
    5.4250   14.7240   -0.1510 H   0  0  0  0  0  0  0  0  0  0  0  0
  1  5  1  0  0  0  0
  2  1  1  0  0  0  0
  3  2  2  0  0  0  0
  4  2  1  1  0  0  0
  4 10  5  0  0  0  0
  6  4  5  0  0  0  0
  6  7  5  0  0  0  0
  6 13  1  0  0  0  0
  7 19  1  6  0  0  0
  8  7  5  0  0  0  0
  8 11  1  6  0  0  0
  9  8  5  0  0  0  0
  9 15  1  6  0  0  0
 10  9  5  0  0  0  0
 10 14  1  0  0  0  0
 11 24  1  0  0  0  0
 11 32  1  6  0  0  0
 12 16  1  0  0  0  0
 12 17  1  0  0  0  0
 12 18  1  0  0  0  0
 12 19  1  0  0  0  0
 15 20  1  0  0  0  0
 15 21  1  0  0  0  0
 22 11  1  0  0  0  0
 23 31  1  0  0  0  0
 23 28  1  0  0  0  0
 24 23  1  0  0  0  0
 24 29  1  0  0  0  0
 25 31  1  0  0  0  0
 25 35  1  0  0  0  0
 25 43  1  6  0  0  0
 26 24  1  0  0  0  0
 27 23  1  0  0  0  0
 31 22  1  0  0  0  0
 31 30  1  6  0  0  0
 33 25  1  0  0  0  0
 34 42  1  0  0  0  0
 34 39  1  0  0  0  0
 35 34  1  0  0  0  0
 35 40  1  0  0  0  0
 36 42  1  0  0  0  0
 36 45  2  0  0  0  0
 37 35  1  0  0  0  0
 38 34  1  0  0  0  0
 42 33  1  0  0  0  0
 42 41  1  1  0  0  0
 44 36  1  0  0  0  0
 46 44  1  0  0  0  0
M  END
