
 OpenBabel11042013033D

 37 38  0  0  1  0  0  0  0  0999 V2000
    1.4590   -0.2240    0.0860 O   0  0  0  0  0  0  0  0  0  0  0  0
    0.1920    0.2780    0.1280 C   0  0  0  0  0  0  0  0  0  0  0  0
   -0.7650   -0.4830    0.2100 O   0  0  0  0  0  0  0  0  0  0  0  0
    0.1040    1.7810    0.1160 C   0  0  2  0  0  0  0  0  0  0  0  0
    2.1280    0.4350   -0.1330 H   0  0  0  0  0  0  0  0  0  0  0  0
   -1.0720    2.4500   -0.0510 C   0  0  1  0  0  0  0  0  0  0  0  0
   -0.9770    3.7700   -0.3200 C   0  0  0  0  0  0  0  0  0  0  0  0
    0.1260    4.5220   -0.0500 C   0  0  2  0  0  0  0  0  0  0  0  0
    1.1950    3.8250    0.3950 C   0  0  2  0  0  0  0  0  0  0  0  0
    1.2530    2.5260    0.0850 C   0  0  2  0  0  0  0  0  0  0  0  0
    0.0200    6.0290   -0.2670 C   0  0  2  0  0  0  0  0  0  0  0  0
   -1.8560    4.2670   -0.6780 H   0  0  0  0  0  0  0  0  0  0  0  0
   -2.4540    1.8170   -0.0350 C   0  0  0  0  0  0  0  0  0  0  0  0
    1.9910    2.2630   -1.1910 N   0  0  0  0  0  0  0  0  0  0  0  0
    1.9310    4.3250    2.0780 Br  0  0  0  0  0  0  0  0  0  0  0  0
   -3.5860    2.7330    0.4590 C   0  0  0  0  0  0  0  0  0  0  0  0
   -3.5180    2.8690    1.5440 H   0  0  0  0  0  0  0  0  0  0  0  0
   -3.5970    3.7280    0.0080 H   0  0  0  0  0  0  0  0  0  0  0  0
   -4.5570    2.2860    0.2310 H   0  0  0  0  0  0  0  0  0  0  0  0
   -2.4710    0.9720    0.6620 H   0  0  0  0  0  0  0  0  0  0  0  0
   -2.6920    1.4380   -1.0350 H   0  0  0  0  0  0  0  0  0  0  0  0
    0.8380    6.9860    0.4420 O   0  0  0  0  0  0  0  0  0  0  0  0
   -1.1750    8.0670   -0.0960 C   0  0  0  0  0  0  0  0  0  0  0  0
   -1.3780    6.5820   -0.0510 C   0  0  0  0  0  0  0  0  0  0  0  0
    0.6690    9.6820    0.4240 C   0  0  0  0  0  0  0  0  0  0  0  0
   -1.7630    6.2870    0.9340 H   0  0  0  0  0  0  0  0  0  0  0  0
   -1.6890    8.5310    0.7490 H   0  0  0  0  0  0  0  0  0  0  0  0
   -1.5840    8.4920   -1.0190 H   0  0  0  0  0  0  0  0  0  0  0  0
   -2.0930    6.2750   -0.8180 H   0  0  0  0  0  0  0  0  0  0  0  0
    0.7170    8.2870   -1.0910 H   0  0  0  0  0  0  0  0  0  0  0  0
    0.3440    8.2470   -0.0550 C   0  0  1  0  0  0  0  0  0  0  0  0
    0.3060    6.1480   -1.3250 H   0  0  0  0  0  0  0  0  0  0  0  0
    1.3480    1.9370   -1.9230 H   0  0  0  0  0  0  0  0  0  0  0  0
    2.3470    3.1510   -1.5670 H   0  0  0  0  0  0  0  0  0  0  0  0
   -0.3300   10.5510    0.1120 O   0  0  0  0  0  0  0  0  0  0  0  0
    1.7180   10.1000    0.8840 O   0  0  0  0  0  0  0  0  0  0  0  0
   -0.0060   11.4450    0.3400 H   0  0  0  0  0  0  0  0  0  0  0  0
  1  5  1  0  0  0  0
  2  1  1  0  0  0  0
  3  2  2  0  0  0  0
  4  2  1  6  0  0  0
  4 10  5  0  0  0  0
  6  4  5  0  0  0  0
  6  7  5  0  0  0  0
  6 13  1  6  0  0  0
  7 12  1  0  0  0  0
  8  7  5  1  0  0  0
  8 11  1  0  0  0  0
  9  8  5  0  0  0  0
  9 15  1  1  0  0  0
 10  9  5  0  0  0  0
 10 14  1  6  0  0  0
 11 24  1  0  0  0  0
 11 32  1  6  0  0  0
 13 20  1  0  0  0  0
 13 21  1  0  0  0  0
 14 33  1  0  0  0  0
 14 34  1  0  0  0  0
 16 17  1  0  0  0  0
 16 18  1  0  0  0  0
 16 19  1  0  0  0  0
 16 13  1  0  0  0  0
 22 11  1  0  0  0  0
 23 31  1  0  0  0  0
 23 28  1  0  0  0  0
 24 23  1  0  0  0  0
 24 29  1  0  0  0  0
 25 31  1  0  0  0  0
 25 36  2  0  0  0  0
 26 24  1  0  0  0  0
 27 23  1  0  0  0  0
 31 22  1  0  0  0  0
 31 30  1  6  0  0  0
 35 25  1  0  0  0  0
 37 35  1  0  0  0  0
M  END
