37

O          1.45900       -0.22400        0.08600
C          0.19200        0.27800        0.12800
O         -0.76500       -0.48300        0.21000
C          0.10400        1.78100        0.11600
H          2.12800        0.43500       -0.13300
C         -1.07200        2.45000       -0.05100
C         -0.97700        3.77000       -0.32000
C          0.12600        4.52200       -0.05000
C          1.19500        3.82500        0.39500
C          1.25300        2.52600        0.08500
C          0.02000        6.02900       -0.26700
H         -1.85600        4.26700       -0.67800
C         -2.45400        1.81700       -0.03500
N          1.99100        2.26300       -1.19100
Br         1.93100        4.32500        2.07800
C         -3.58600        2.73300        0.45900
H         -3.51800        2.86900        1.54400
H         -3.59700        3.72800        0.00800
H         -4.55700        2.28600        0.23100
H         -2.47100        0.97200        0.66200
H         -2.69200        1.43800       -1.03500
O          0.83800        6.98600        0.44200
C         -1.17500        8.06700       -0.09600
C         -1.37800        6.58200       -0.05100
C          0.66900        9.68200        0.42400
H         -1.76300        6.28700        0.93400
H         -1.68900        8.53100        0.74900
H         -1.58400        8.49200       -1.01900
H         -2.09300        6.27500       -0.81800
H          0.71700        8.28700       -1.09100
C          0.34400        8.24700       -0.05500
H          0.30600        6.14800       -1.32500
H          1.34800        1.93700       -1.92300
H          2.34700        3.15100       -1.56700
O         -0.33000       10.55100        0.11200
O          1.71800       10.10000        0.88400
H         -0.00600       11.44500        0.34000
