31

O          1.10400       -0.16500        0.50100
C          0.04200        0.41800       -0.09900
O         -0.86500       -0.26000       -0.55700
C          0.05500        1.91500       -0.09000
H          1.85500        0.43100        0.68000
C         -1.09600        2.57400        0.19200
C         -1.12500        3.92500        0.20300
C         -0.03600        4.68400       -0.06900
C          1.09800        3.99900       -0.36100
C          1.16400        2.64600       -0.37700
C         -0.08700        6.18500       -0.04900
H         -2.07400        4.39300        0.44700
Cl        -2.60500        1.78900        0.57900
Br         2.84700        1.89800       -0.82200
H          2.00700        4.54100       -0.60700
C         -1.26200        6.86100       -0.10000
C         -1.31100        8.20200       -0.07200
C         -0.18500        8.94400       -0.01300
C          1.01400        8.30900        0.03000
C          1.03400        6.95000        0.02800
C         -0.30000       10.43500       -0.02100
H         -2.29000        8.68000       -0.11100
H         -2.21700        6.35100       -0.16700
H          2.01100        6.47800        0.08100
C          2.33600        9.04600        0.10200
H          2.56700        9.50600       -0.86300
H          3.16600        8.37600        0.35000
H          2.32400        9.81400        0.88300
O         -1.54100       10.87700        0.26200
O          0.58900       11.23900       -0.24800
H         -1.45300       11.85100        0.21400
