
 OpenBabel11042013063D

 26 26  0  0  1  0  0  0  0  0999 V2000
    1.4690    0.4880   -0.2890 O   0  0  0  0  0  0  0  0  0  0  0  0
    0.4940    1.0630    0.4520 C   0  0  0  0  0  0  0  0  0  0  0  0
   -0.1470    0.4380    1.2800 O   0  0  0  0  0  0  0  0  0  0  0  0
    0.3310    2.5250    0.2020 C   0  0  1  0  0  0  0  0  0  0  0  0
    1.8700    1.0540   -0.9720 H   0  0  0  0  0  0  0  0  0  0  0  0
   -0.8770    3.1110    0.0230 C   0  0  1  0  0  0  0  0  0  0  0  0
   -0.9800    4.4730   -0.1080 C   0  0  2  0  0  0  0  0  0  0  0  0
    0.1840    5.1990   -0.0970 C   0  0  2  0  0  0  0  0  0  0  0  0
    1.3940    4.5980    0.0380 C   0  0  2  0  0  0  0  0  0  0  0  0
    1.4550    3.2650    0.2110 C   0  0  0  0  0  0  0  0  0  0  0  0
    0.1510    6.6290   -0.2240 C   0  0  0  0  0  0  0  0  0  0  0  0
   -2.3240    5.2290   -0.2630 C   0  0  0  0  0  0  0  0  0  0  0  0
   -2.2820    2.0850   -0.1110 Cl  0  0  0  0  0  0  0  0  0  0  0  0
    2.4240    2.7950    0.3680 H   0  0  0  0  0  0  0  0  0  0  0  0
    3.0420    5.5370    0.0070 Br  0  0  0  0  0  0  0  0  0  0  0  0
   -3.5610    4.8050    0.5290 C   0  0  0  0  0  0  0  0  0  0  0  0
   -3.3130    4.5030    1.5500 H   0  0  0  0  0  0  0  0  0  0  0  0
   -4.1110    4.0040    0.0280 H   0  0  0  0  0  0  0  0  0  0  0  0
   -4.2630    5.6460    0.5910 H   0  0  0  0  0  0  0  0  0  0  0  0
   -2.5760    5.2740   -1.3300 H   0  0  0  0  0  0  0  0  0  0  0  0
   -2.1910    6.2700    0.0530 H   0  0  0  0  0  0  0  0  0  0  0  0
    0.1100    7.8300   -0.2570 C   0  0  0  0  0  0  0  0  0  0  0  0
    0.0380    9.2660   -0.2370 C   0  0  0  0  0  0  0  0  0  0  0  0
   -1.2140    9.7470   -0.1770 O   0  0  0  0  0  0  0  0  0  0  0  0
    1.0220    9.9860   -0.2480 O   0  0  0  0  0  0  0  0  0  0  0  0
   -1.0870   10.7160   -0.1380 H   0  0  0  0  0  0  0  0  0  0  0  0
  1  5  1  0  0  0  0
  2  1  1  0  0  0  0
  3  2  2  0  0  0  0
  4  2  1  1  0  0  0
  4 10  5  0  0  0  0
  6  4  5  0  0  0  0
  6  7  5  0  0  0  0
  6 13  1  6  0  0  0
  7 12  1  1  0  0  0
  8  7  5  0  0  0  0
  8 11  1  1  0  0  0
  9  8  5  0  0  0  0
  9 15  1  1  0  0  0
 10  9  5  0  0  0  0
 10 14  1  0  0  0  0
 12 20  1  0  0  0  0
 12 21  1  0  0  0  0
 16 17  1  0  0  0  0
 16 18  1  0  0  0  0
 16 19  1  0  0  0  0
 16 12  1  0  0  0  0
 22 11  3  0  0  0  0
 23 22  1  0  0  0  0
 23 25  2  0  0  0  0
 24 23  1  0  0  0  0
 26 24  1  0  0  0  0
M  END
