28

O          0.76500        0.17200       -0.47100
C         -0.20200        0.89700        0.12100
O         -1.16800        0.34800        0.63600
C         -0.05200        2.39400        0.03800
H          1.33000        0.68100       -1.07600
C         -1.25900        3.00600       -0.04100
C         -1.39200        4.34500       -0.07100
C         -0.27100        5.10800       -0.04000
C          0.95100        4.50700        0.05700
C          1.08400        3.14500        0.09500
C         -0.37900        6.53600       -0.07000
C         -2.78900        4.92800       -0.12800
H         -2.16700        2.40100       -0.06100
C          2.48500        2.57400        0.22600
N          2.12600        5.33400        0.13300
C         -0.39100        7.73800       -0.10100
C         -0.32600        9.16900       -0.14300
H         -3.49800        4.23300       -0.59200
H         -2.83600        5.84800       -0.71900
H         -3.14500        5.14400        0.88600
H          2.57300        1.49700        0.11400
H          3.14500        3.00100       -0.54100
H          2.89600        2.80500        1.21500
H          2.93100        4.96000        0.62100
H          1.98100        6.31000        0.37600
O         -1.52200        9.78400       -0.15800
O          0.72100        9.79200       -0.15600
H         -1.28800       10.73500       -0.18500
