25

O          0.84700        0.36500        0.10800
C         -0.30400        1.07300        0.04700
O         -1.37600        0.50000       -0.07200
C         -0.18700        2.56600        0.10700
H          1.62000        0.93600        0.30200
C         -1.32500        3.30600        0.01400
C         -1.26900        4.66200        0.01700
C         -0.06200        5.27400        0.15800
C          1.06300        4.53700        0.25600
C          1.01000        3.19300        0.21600
C          0.03700        6.70500        0.15800
C         -2.53900        5.48200       -0.13000
O         -2.58300        2.71800       -0.11700
O          2.18800        2.46000        0.24800
H          2.02100        5.03400        0.37000
C         -0.01500        7.90400        0.13200
C         -0.17100        9.32600        0.07400
H          2.84500        2.82400       -0.38800
H         -3.44100        4.92000        0.13900
H         -2.54300        6.36000        0.52400
H         -2.64600        5.81400       -1.16600
H         -2.54700        1.73800       -0.10700
O         -1.45100        9.73200        0.06500
O          0.76000       10.10300        0.02900
H         -1.39000       10.71100        0.01700
