56

O          1.65500       -1.24200       -0.14500
C          0.46800       -0.62900       -0.32200
O         -0.56800       -1.27500       -0.40700
C          0.51700        0.86800       -0.32600
H          2.41300       -0.65900        0.01000
C         -0.70000        1.45000       -0.31900
C         -0.80300        2.79000       -0.20100
C          0.28700        3.58900       -0.07900
C          1.49600        2.99000       -0.16700
C          1.61300        1.65200       -0.29100
C          0.15800        5.04000        0.39000
H         -1.82300        3.16200       -0.13000
H         -1.61700        0.87200       -0.34500
H          2.62300        1.25700       -0.33100
H          2.39200        3.60300       -0.06900
O          0.69200        6.16200       -0.38200
C         -1.24600        6.89900        0.66800
C         -1.28500        5.41900        0.62500
C          0.35900        8.77400       -0.15900
H         -1.72200        4.97700        1.52300
H         -1.60800        7.29000        1.62000
H         -1.91000        7.16100       -0.15100
H         -1.91800        5.15900       -0.23500
H          0.73800        7.30500        1.31900
C          0.18100        7.31800        0.36800
H          0.68000        5.07500        1.35900
C         -0.66400        9.65100       -0.41900
C         -0.35500       10.91600       -0.73000
C          0.86400       11.46500       -0.59800
C          1.87900       10.60600       -0.36700
C          1.62800        9.28300       -0.19600
C          0.86500       12.98600       -0.68700
H         -1.17000       11.56500       -1.02300
C         -2.17200        9.41900       -0.24500
H          2.47400        8.62400       -0.00000
H          2.90200       10.97000       -0.29100
C          1.94200       13.92700       -0.15200
C          1.23400       15.27100       -0.40200
N         -0.20500       14.98200       -0.17200
N         -0.25000       13.58500        0.11000
C          1.64500       16.49100        0.40500
H         -1.15900       13.19600       -0.12600
H         -0.54200       15.54400        0.62100
H          2.88700       13.85200       -0.69700
H          1.34400       15.54400       -1.45700
H          2.15000       13.76700        0.91700
H          0.71100       13.20800       -1.76000
C         -3.18000       10.56900       -0.09900
H         -2.76500       11.44900        0.39900
H         -3.58800       10.85200       -1.07200
H         -4.01900       10.22700        0.52100
H         -2.29100        8.95100        0.73100
H         -2.53700        8.77600       -1.05200
O          0.61800       17.36500        0.57600
O          2.76900       16.77800        0.78200
H          1.02000       18.17700        0.94400
