
 OpenBabel11042013063D

 29 29  0  0  1  0  0  0  0  0999 V2000
    1.6680    0.3900   -0.1120 O   0  0  0  0  0  0  0  0  0  0  0  0
    0.3940    0.7890    0.0910 C   0  0  0  0  0  0  0  0  0  0  0  0
   -0.4430   -0.0690    0.3340 O   0  0  0  0  0  0  0  0  0  0  0  0
    0.0980    2.2850    0.0090 C   0  0  1  0  0  0  0  0  0  0  0  0
    2.3650    1.0300   -0.3130 H   0  0  0  0  0  0  0  0  0  0  0  0
   -1.1720    2.8250    0.0520 C   0  0  2  0  0  0  0  0  0  0  0  0
   -1.3380    4.2070    0.0050 C   0  0  2  0  0  0  0  0  0  0  0  0
   -0.2280    5.0120   -0.0640 C   0  0  2  0  0  0  0  0  0  0  0  0
    0.9870    4.4290   -0.1100 C   0  0  2  0  0  0  0  0  0  0  0  0
    1.1520    3.1110   -0.0710 C   0  0  0  0  0  0  0  0  0  0  0  0
   -0.1560    6.4920   -0.0740 C   0  0  0  0  0  0  0  0  0  0  0  0
   -3.8330    4.3510   -0.0620 C   0  0  0  0  0  0  0  0  0  0  0  0
   -2.3030    1.8110    0.1770 C   0  0  0  0  0  0  0  0  0  0  0  0
    2.1870    2.8060   -0.0910 H   0  0  0  0  0  0  0  0  0  0  0  0
    2.1220    5.1660   -0.1800 F   0  0  0  0  0  0  0  0  0  0  0  0
   -3.3100    2.1460   -0.0150 H   0  0  0  0  0  0  0  0  0  0  0  0
   -2.1980    1.0110   -0.5650 H   0  0  0  0  0  0  0  0  0  0  0  0
   -2.3120    1.3910    1.1900 H   0  0  0  0  0  0  0  0  0  0  0  0
   -1.0630    7.4810   -0.0350 C   0  0  0  0  0  0  0  0  0  0  0  0
   -0.5120    8.8590   -0.0230 C   0  0  0  0  0  0  0  0  0  0  0  0
   -2.1290    7.3560    0.0020 H   0  0  0  0  0  0  0  0  0  0  0  0
    0.8780    6.8500   -0.1000 H   0  0  0  0  0  0  0  0  0  0  0  0
   -4.0860    3.7870    0.8410 H   0  0  0  0  0  0  0  0  0  0  0  0
   -4.5570    5.1690   -0.1280 H   0  0  0  0  0  0  0  0  0  0  0  0
   -3.9440    3.7670   -0.9820 H   0  0  0  0  0  0  0  0  0  0  0  0
   -2.5370    4.9060    0.0430 O   0  0  0  0  0  0  0  0  0  0  0  0
   -1.4930    9.7810    0.0140 O   0  0  0  0  0  0  0  0  0  0  0  0
    0.6630    9.1910   -0.0400 O   0  0  0  0  0  0  0  0  0  0  0  0
   -0.9900   10.6240    0.0240 H   0  0  0  0  0  0  0  0  0  0  0  0
  1  5  1  0  0  0  0
  2  1  1  0  0  0  0
  3  2  2  0  0  0  0
  4  2  1  1  0  0  0
  4 10  5  0  0  0  0
  6  4  5  0  0  0  0
  6  7  5  0  0  0  0
  6 13  1  1  0  0  0
  7 26  1  1  0  0  0
  8  7  5  0  0  0  0
  8 11  1  1  0  0  0
  9  8  5  0  0  0  0
  9 15  1  1  0  0  0
 10  9  5  0  0  0  0
 10 14  1  0  0  0  0
 11 22  1  0  0  0  0
 12 23  1  0  0  0  0
 12 24  1  0  0  0  0
 12 25  1  0  0  0  0
 12 26  1  0  0  0  0
 13 16  1  0  0  0  0
 13 17  1  0  0  0  0
 13 18  1  0  0  0  0
 19 11  2  0  0  0  0
 19 21  1  0  0  0  0
 20 19  1  0  0  0  0
 20 28  2  0  0  0  0
 27 20  1  0  0  0  0
 29 27  1  0  0  0  0
M  END
