
 OpenBabel11042013063D

 37 38  0  0  1  0  0  0  0  0999 V2000
    1.6930    0.4150   -0.5130 O   0  0  0  0  0  0  0  0  0  0  0  0
    0.7360    0.9860    0.2430 C   0  0  0  0  0  0  0  0  0  0  0  0
    0.0520    0.3620    1.0410 O   0  0  0  0  0  0  0  0  0  0  0  0
    0.6610    2.4620    0.0660 C   0  0  1  0  0  0  0  0  0  0  0  0
    2.1200    1.0230   -1.1450 H   0  0  0  0  0  0  0  0  0  0  0  0
   -0.4710    3.0990   -0.3160 C   0  0  1  0  0  0  0  0  0  0  0  0
   -0.5220    4.4650   -0.3420 C   0  0  1  0  0  0  0  0  0  0  0  0
    0.6080    5.1810   -0.0380 C   0  0  2  0  0  0  0  0  0  0  0  0
    1.7390    4.5020    0.2870 C   0  0  0  0  0  0  0  0  0  0  0  0
    1.7700    3.1640    0.3560 C   0  0  0  0  0  0  0  0  0  0  0  0
    0.7260    6.6510    0.0910 C   0  0  0  0  0  0  0  0  0  0  0  0
   -2.8770    4.8540    0.0150 C   0  0  0  0  0  0  0  0  0  0  0  0
   -1.8340    2.1180   -0.8190 Cl  0  0  0  0  0  0  0  0  0  0  0  0
    2.6880    2.6680    0.6700 H   0  0  0  0  0  0  0  0  0  0  0  0
    2.6570    5.0350    0.5360 H   0  0  0  0  0  0  0  0  0  0  0  0
   -0.1240    7.6450   -0.2290 C   0  0  0  0  0  0  0  0  0  0  0  0
    0.0520    9.0470    0.2950 C   0  0  1  0  0  0  0  0  0  0  0  0
   -1.0620    7.4340   -0.7300 H   0  0  0  0  0  0  0  0  0  0  0  0
    1.6280    6.9710    0.6180 H   0  0  0  0  0  0  0  0  0  0  0  0
    1.3080    9.8270   -0.0630 C   0  0  0  0  0  0  0  0  0  0  0  0
    0.9390   11.2270    0.4130 C   0  0  2  0  0  0  0  0  0  0  0  0
   -0.5430   11.2930    0.2960 N   0  0  0  0  0  0  0  0  0  0  0  0
   -0.9800    9.9810   -0.1710 N   0  0  0  0  0  0  0  0  0  0  0  0
    1.6200   12.3580   -0.3450 C   0  0  0  0  0  0  0  0  0  0  0  0
   -1.8800    9.7280    0.2470 H   0  0  0  0  0  0  0  0  0  0  0  0
   -0.7860   12.0390   -0.3700 H   0  0  0  0  0  0  0  0  0  0  0  0
    2.1960    9.4520    0.4570 H   0  0  0  0  0  0  0  0  0  0  0  0
    1.1950   11.3520    1.4730 H   0  0  0  0  0  0  0  0  0  0  0  0
    1.5110    9.8060   -1.1420 H   0  0  0  0  0  0  0  0  0  0  0  0
   -0.0280    8.9810    1.3920 H   0  0  0  0  0  0  0  0  0  0  0  0
   -2.7000    4.3230    0.9570 H   0  0  0  0  0  0  0  0  0  0  0  0
   -3.5430    4.2770   -0.6340 H   0  0  0  0  0  0  0  0  0  0  0  0
   -3.3910    5.7910    0.2470 H   0  0  0  0  0  0  0  0  0  0  0  0
   -1.6780    5.1650   -0.6960 O   0  0  0  0  0  0  0  0  0  0  0  0
    0.8180   13.4300   -0.5520 O   0  0  0  0  0  0  0  0  0  0  0  0
    2.7930   12.3990   -0.6840 O   0  0  0  0  0  0  0  0  0  0  0  0
    1.4080   14.1050   -0.9480 H   0  0  0  0  0  0  0  0  0  0  0  0
  1  5  1  0  0  0  0
  2  1  1  0  0  0  0
  3  2  2  0  0  0  0
  4  2  1  1  0  0  0
  4 10  5  0  0  0  0
  6  4  5  0  0  0  0
  6  7  5  0  0  0  0
  6 13  1  6  0  0  0
  7 34  1  6  0  0  0
  8  7  5  0  0  0  0
  8 11  1  1  0  0  0
  9  8  5  0  0  0  0
  9 15  1  0  0  0  0
 10  9  5  0  0  0  0
 10 14  1  0  0  0  0
 11 19  1  0  0  0  0
 12 31  1  0  0  0  0
 12 32  1  0  0  0  0
 12 33  1  0  0  0  0
 12 34  1  0  0  0  0
 16 11  2  0  0  0  0
 16 18  1  0  0  0  0
 17 16  1  0  0  0  0
 17 23  1  0  0  0  0
 17 30  1  1  0  0  0
 20 17  1  0  0  0  0
 20 27  1  0  0  0  0
 20 29  1  0  0  0  0
 21 20  1  0  0  0  0
 21 28  1  1  0  0  0
 22 21  1  0  0  0  0
 23 22  1  0  0  0  0
 24 21  1  0  0  0  0
 24 36  2  0  0  0  0
 25 23  1  0  0  0  0
 26 22  1  0  0  0  0
 35 24  1  0  0  0  0
 37 35  1  0  0  0  0
M  END
