
 OpenBabel11042013033D

 40 42  0  0  1  0  0  0  0  0999 V2000
    1.4440   -0.0170   -0.1720 O   0  0  0  0  0  0  0  0  0  0  0  0
    0.2620    0.5800   -0.4390 C   0  0  0  0  0  0  0  0  0  0  0  0
   -0.7100   -0.0540   -0.8180 O   0  0  0  0  0  0  0  0  0  0  0  0
    0.2320    2.0560   -0.1990 C   0  0  2  0  0  0  0  0  0  0  0  0
    2.1040    0.5360    0.2800 H   0  0  0  0  0  0  0  0  0  0  0  0
   -0.9670    2.5810    0.1000 C   0  0  0  0  0  0  0  0  0  0  0  0
   -1.1170    3.9040    0.3220 C   0  0  2  0  0  0  0  0  0  0  0  0
   -0.0680    4.7790    0.2240 C   0  0  1  0  0  0  0  0  0  0  0  0
    1.1370    4.2140   -0.0700 C   0  0  2  0  0  0  0  0  0  0  0  0
    1.2920    2.8880   -0.2740 C   0  0  0  0  0  0  0  0  0  0  0  0
   -0.2510    6.3190    0.4180 C   0  0  1  0  0  0  0  0  0  0  0  0
   -2.7330    4.3810    0.7680 Cl  0  0  0  0  0  0  0  0  0  0  0  0
   -1.8380    1.9230    0.1600 H   0  0  0  0  0  0  0  0  0  0  0  0
    2.2850    2.5260   -0.5120 H   0  0  0  0  0  0  0  0  0  0  0  0
    2.2460    4.9760   -0.1500 F   0  0  0  0  0  0  0  0  0  0  0  0
    0.8900    7.1540    0.0810 O   0  0  0  0  0  0  0  0  0  0  0  0
   -0.9730    8.2210   -0.9250 C   0  0  0  0  0  0  0  0  0  0  0  0
   -1.4100    6.8950   -0.3780 C   0  0  0  0  0  0  0  0  0  0  0  0
    0.6280    9.6100    0.6270 C   0  0  1  0  0  0  0  0  0  0  0  0
   -2.2830    7.0320    0.2710 H   0  0  0  0  0  0  0  0  0  0  0  0
   -0.9700    8.1770   -2.0210 H   0  0  0  0  0  0  0  0  0  0  0  0
   -1.7020    8.9930   -0.6790 H   0  0  0  0  0  0  0  0  0  0  0  0
   -1.7180    6.2500   -1.2090 H   0  0  0  0  0  0  0  0  0  0  0  0
    1.0780    8.6700   -1.2970 H   0  0  0  0  0  0  0  0  0  0  0  0
    0.4440    8.4500   -0.4300 C   0  0  1  0  0  0  0  0  0  0  0  0
   -0.4140    6.4800    1.4910 H   0  0  0  0  0  0  0  0  0  0  0  0
    1.9110   10.4420    0.3970 C   0  0  0  0  0  0  0  0  0  0  0  0
    1.4740   11.6880   -0.3830 C   0  0  1  0  0  0  0  0  0  0  0  0
    0.0030   11.5490   -0.4870 N   0  0  0  0  0  0  0  0  0  0  0  0
   -0.3590   10.7030    0.6200 N   0  0  0  0  0  0  0  0  0  0  0  0
    1.8370   13.0270    0.2860 C   0  0  0  0  0  0  0  0  0  0  0  0
   -1.3220   10.3720    0.5740 H   0  0  0  0  0  0  0  0  0  0  0  0
   -0.4000   12.4950   -0.3980 H   0  0  0  0  0  0  0  0  0  0  0  0
    2.6730    9.8810   -0.1540 H   0  0  0  0  0  0  0  0  0  0  0  0
    1.9060   11.7110   -1.3900 H   0  0  0  0  0  0  0  0  0  0  0  0
    2.3420   10.7300    1.3650 H   0  0  0  0  0  0  0  0  0  0  0  0
    0.6660    9.1650    1.6270 H   0  0  0  0  0  0  0  0  0  0  0  0
    0.8480   13.9540    0.2080 O   0  0  0  0  0  0  0  0  0  0  0  0
    2.9160   13.3300    0.7760 O   0  0  0  0  0  0  0  0  0  0  0  0
    1.2270   14.7520    0.6340 H   0  0  0  0  0  0  0  0  0  0  0  0
  1  5  1  0  0  0  0
  2  1  1  0  0  0  0
  3  2  2  0  0  0  0
  4  2  1  6  0  0  0
  4 10  5  0  0  0  0
  6  4  5  0  0  0  0
  6  7  5  0  0  0  0
  6 13  1  0  0  0  0
  7 12  1  1  0  0  0
  8  7  5  0  0  0  0
  8 11  1  6  0  0  0
  9  8  5  0  0  0  0
  9 15  1  1  0  0  0
 10  9  5  0  0  0  0
 10 14  1  0  0  0  0
 11 18  1  0  0  0  0
 11 26  1  1  0  0  0
 16 11  1  0  0  0  0
 17 25  1  0  0  0  0
 17 22  1  0  0  0  0
 18 17  1  0  0  0  0
 18 23  1  0  0  0  0
 19 25  1  0  0  0  0
 19 30  1  0  0  0  0
 19 37  1  1  0  0  0
 20 18  1  0  0  0  0
 21 17  1  0  0  0  0
 25 16  1  0  0  0  0
 25 24  1  6  0  0  0
 27 19  1  0  0  0  0
 27 34  1  0  0  0  0
 27 36  1  0  0  0  0
 28 27  1  0  0  0  0
 28 35  1  6  0  0  0
 29 28  1  0  0  0  0
 30 29  1  0  0  0  0
 31 28  1  0  0  0  0
 31 39  2  0  0  0  0
 32 30  1  0  0  0  0
 33 29  1  0  0  0  0
 38 31  1  0  0  0  0
 40 38  1  0  0  0  0
M  END
