43

O          1.36900       -0.97900        0.16400
C          0.17100       -0.36300        0.22700
O         -0.86300       -1.01300        0.30000
C          0.20100        1.13600        0.14100
H          2.14100       -0.41100        0.02600
C         -1.01000        1.72600        0.06800
C         -1.11500        3.05200       -0.12100
C         -0.02000        3.84000       -0.25200
C          1.19000        3.25500       -0.09100
C          1.30300        1.92100        0.10200
C         -0.19300        5.30100       -0.64800
H         -2.11700        3.47000       -0.21200
H         -1.92700        1.14000        0.12400
H          2.30600        1.52200        0.18900
H          2.10000        3.84700       -0.16100
C          0.77200        6.39400       -0.21700
N         -0.14000        7.53100       -0.26800
N         -1.42000        7.08900       -0.02400
N         -1.48300        5.84800       -0.16300
C          0.18800        8.81100        0.32100
H          1.61000        6.53700       -0.90400
H          1.12800        6.26600        0.81100
H         -0.24800        5.31000       -1.74700
O          1.20900        9.53800       -0.39700
C         -0.34000       11.11500        0.47800
C         -0.99000        9.77200        0.30600
C          1.71400       11.97800       -0.48900
H         -1.49600        9.74300       -0.66900
H         -0.77400       11.82600       -0.23700
H         -0.49300       11.53100        1.47800
H         -1.73400        9.55500        1.07800
H          1.66400       10.74900        1.19100
C          1.14400       10.84000        0.22900
H          0.53700        8.63000        1.34600
C          1.92700       13.14400       -0.71600
C          1.92700       14.55900       -0.62100
C          0.76900       15.20400       -0.41900
C          0.76100       16.63500       -0.10200
H         -0.19000       14.69700       -0.41600
H          2.87800       15.08100       -0.58900
O         -0.50100       17.08900       -0.05000
O          1.71900       17.34600        0.12700
H         -0.40600       18.03600        0.18500
