
 OpenBabel11042013063D

 57 61  0  0  1  0  0  0  0  0999 V2000
    1.8920   -1.5070    0.2810 O   0  0  0  0  0  0  0  0  0  0  0  0
    0.6240   -1.0820    0.4570 C   0  0  0  0  0  0  0  0  0  0  0  0
   -0.2910   -1.8800    0.6130 O   0  0  0  0  0  0  0  0  0  0  0  0
    0.4200    0.4010    0.3660 C   0  0  2  0  0  0  0  0  0  0  0  0
    2.5420   -0.8260    0.0490 H   0  0  0  0  0  0  0  0  0  0  0  0
   -0.8700    0.7990    0.3050 C   0  0  0  0  0  0  0  0  0  0  0  0
   -1.1790    2.0890    0.0950 C   0  0  0  0  0  0  0  0  0  0  0  0
   -0.2120    3.0200   -0.0800 C   0  0  1  0  0  0  0  0  0  0  0  0
    1.0750    2.6340    0.0810 C   0  0  0  0  0  0  0  0  0  0  0  0
    1.3920    1.3400    0.3010 C   0  0  0  0  0  0  0  0  0  0  0  0
   -0.5490    4.4050   -0.5950 C   0  0  2  0  0  0  0  0  0  0  0  0
   -2.2320    2.3410    0.0050 H   0  0  0  0  0  0  0  0  0  0  0  0
   -1.6830    0.0780    0.3790 H   0  0  0  0  0  0  0  0  0  0  0  0
    2.4440    1.1000    0.3800 H   0  0  0  0  0  0  0  0  0  0  0  0
    1.8720    3.3680   -0.0280 H   0  0  0  0  0  0  0  0  0  0  0  0
    0.1930    5.5160   -0.0530 O   0  0  0  0  0  0  0  0  0  0  0  0
   -1.8990    6.3430   -0.7690 C   0  0  0  0  0  0  0  0  0  0  0  0
   -1.9940    4.8590   -0.5090 C   0  0  0  0  0  0  0  0  0  0  0  0
    0.0370    8.0030   -0.2260 C   0  0  2  0  0  0  0  0  0  0  0  0
   -2.6440    4.3540   -1.2290 H   0  0  0  0  0  0  0  0  0  0  0  0
   -2.3390    6.6330   -1.7290 H   0  0  0  0  0  0  0  0  0  0  0  0
   -2.4710    6.8390    0.0200 H   0  0  0  0  0  0  0  0  0  0  0  0
   -2.4030    4.7000    0.4970 H   0  0  0  0  0  0  0  0  0  0  0  0
   -0.0210    6.5890   -1.7860 H   0  0  0  0  0  0  0  0  0  0  0  0
   -0.3930    6.6480   -0.7520 C   0  0  1  0  0  0  0  0  0  0  0  0
   -0.2760    4.3590   -1.6610 H   0  0  0  0  0  0  0  0  0  0  0  0
   -0.8680    8.9240    0.1670 C   0  0  0  0  0  0  0  0  0  0  0  0
   -0.4920   10.1180    0.6350 C   0  0  0  0  0  0  0  0  0  0  0  0
    0.8120   10.4620    0.7280 C   0  0  2  0  0  0  0  0  0  0  0  0
    1.7250    9.5720    0.2740 C   0  0  0  0  0  0  0  0  0  0  0  0
    1.3430    8.3640   -0.1910 C   0  0  0  0  0  0  0  0  0  0  0  0
    1.2170   11.7730    1.3910 C   0  0  1  0  0  0  0  0  0  0  0  0
   -1.2850   10.7880    0.9580 H   0  0  0  0  0  0  0  0  0  0  0  0
   -1.9360    8.7460    0.1350 H   0  0  0  0  0  0  0  0  0  0  0  0
    2.1040    7.6660   -0.5340 H   0  0  0  0  0  0  0  0  0  0  0  0
    2.7850    9.8110    0.3020 H   0  0  0  0  0  0  0  0  0  0  0  0
    1.9620   12.7970    0.5630 C   0  0  0  0  0  0  0  0  0  0  0  0
    0.8760   13.6650    0.1510 N   0  0  0  0  0  0  0  0  0  0  0  0
   -0.2180   13.4590    0.9740 N   0  0  0  0  0  0  0  0  0  0  0  0
    0.0120   12.5340    1.7860 N   0  0  0  0  0  0  0  0  0  0  0  0
    1.0010   14.9910   -0.2290 C   0  0  1  0  0  0  0  0  0  0  0  0
    2.5070   12.4050   -0.3000 H   0  0  0  0  0  0  0  0  0  0  0  0
    2.6410   13.3500    1.2210 H   0  0  0  0  0  0  0  0  0  0  0  0
    1.7870   11.5290    2.2950 H   0  0  0  0  0  0  0  0  0  0  0  0
   -0.1120   15.6590   -0.6190 C   0  0  0  0  0  0  0  0  0  0  0  0
   -0.1190   16.9960   -0.7390 C   0  0  0  0  0  0  0  0  0  0  0  0
    1.0080   17.6890   -0.4660 C   0  0  2  0  0  0  0  0  0  0  0  0
    2.1530   17.0340   -0.2020 C   0  0  0  0  0  0  0  0  0  0  0  0
    2.1530   15.6870   -0.1000 C   0  0  0  0  0  0  0  0  0  0  0  0
    0.9860   19.1610   -0.3690 C   0  0  0  0  0  0  0  0  0  0  0  0
   -1.0440   17.5000   -0.9860 H   0  0  0  0  0  0  0  0  0  0  0  0
   -1.0490   15.1190   -0.7800 H   0  0  0  0  0  0  0  0  0  0  0  0
    3.0820   15.2020    0.1830 H   0  0  0  0  0  0  0  0  0  0  0  0
    3.0730   17.5820    0.0020 H   0  0  0  0  0  0  0  0  0  0  0  0
   -0.2390   19.6310   -0.0360 O   0  0  0  0  0  0  0  0  0  0  0  0
    1.9470   19.9090   -0.4210 O   0  0  0  0  0  0  0  0  0  0  0  0
   -0.0900   20.5790    0.1590 H   0  0  0  0  0  0  0  0  0  0  0  0
  1  5  1  0  0  0  0
  2  1  1  0  0  0  0
  3  2  2  0  0  0  0
  4  2  1  6  0  0  0
  4 10  5  0  0  0  0
  6  4  5  0  0  0  0
  6  7  5  0  0  0  0
  6 13  1  0  0  0  0
  7 12  1  0  0  0  0
  8  7  5  6  0  0  0
  8 11  1  0  0  0  0
  9  8  5  0  0  0  0
  9 15  1  0  0  0  0
 10  9  5  0  0  0  0
 10 14  1  0  0  0  0
 11 18  1  0  0  0  0
 11 26  1  6  0  0  0
 16 11  1  0  0  0  0
 17 25  1  0  0  0  0
 17 22  1  0  0  0  0
 18 17  1  0  0  0  0
 18 23  1  0  0  0  0
 19 25  1  0  0  0  0
 19 27  5  6  0  0  0
 19 31  5  0  0  0  0
 20 18  1  0  0  0  0
 21 17  1  0  0  0  0
 25 16  1  0  0  0  0
 25 24  1  6  0  0  0
 27 28  5  0  0  0  0
 27 34  1  0  0  0  0
 28 33  1  0  0  0  0
 29 28  5  1  0  0  0
 29 32  1  0  0  0  0
 30 29  5  0  0  0  0
 30 36  1  0  0  0  0
 31 30  5  0  0  0  0
 31 35  1  0  0  0  0
 32 40  1  0  0  0  0
 32 44  1  1  0  0  0
 37 32  1  0  0  0  0
 37 42  1  0  0  0  0
 37 43  1  0  0  0  0
 38 37  1  0  0  0  0
 39 38  1  0  0  0  0
 40 39  2  0  0  0  0
 41 38  1  1  0  0  0
 41 49  5  0  0  0  0
 45 41  5  0  0  0  0
 45 46  5  0  0  0  0
 45 52  1  0  0  0  0
 46 51  1  0  0  0  0
 47 46  5  0  0  0  0
 47 50  1  1  0  0  0
 48 47  5  0  0  0  0
 48 54  1  0  0  0  0
 49 48  5  0  0  0  0
 49 53  1  0  0  0  0
 50 56  2  0  0  0  0
 55 50  1  0  0  0  0
 57 55  1  0  0  0  0
M  END
