23

O          1.07100        0.38100       -0.04300
C         -0.06800        1.10100       -0.06300
O         -1.11000        0.46600       -0.05700
C          0.03500        2.62700       -0.07300
H          1.91400        0.86600       -0.02500
C         -1.12100        3.37400       -0.08300
C         -1.07800        4.74700       -0.03700
C          0.10500        5.42100       -0.04600
C          1.22600        4.66300       -0.06000
C          1.21800        3.30900       -0.05600
C          0.31600        6.89700       -0.03500
C         -2.31400        5.46100        0.05700
Br        -2.88600        2.58300       -0.17500
Br         2.95900        2.54700       -0.02200
H          2.19500        5.16800       -0.05800
N         -3.32400        6.03000        0.17200
C         -0.57600        7.90400       -0.02900
C         -0.17600        9.32400       -0.01000
H         -1.64700        7.78700       -0.03200
H          1.36600        7.20800       -0.04300
O         -1.27700       10.09700       -0.00400
O          0.95100        9.77600        0.00100
H         -0.95700       11.02300        0.01500
