
 OpenBabel11042013063D

 25 25  0  0  1  0  0  0  0  0999 V2000
    0.8780    0.1420   -0.5760 O   0  0  0  0  0  0  0  0  0  0  0  0
   -0.3160    0.7750   -0.5250 C   0  0  0  0  0  0  0  0  0  0  0  0
   -1.3410    0.1230   -0.6480 O   0  0  0  0  0  0  0  0  0  0  0  0
   -0.2560    2.2710   -0.3080 C   0  0  1  0  0  0  0  0  0  0  0  0
    1.6350    0.7500   -0.6760 H   0  0  0  0  0  0  0  0  0  0  0  0
   -1.4010    2.9180    0.0360 C   0  0  2  0  0  0  0  0  0  0  0  0
   -1.4110    4.2650    0.2150 C   0  0  2  0  0  0  0  0  0  0  0  0
   -0.2750    4.9760    0.0350 C   0  0  2  0  0  0  0  0  0  0  0  0
    0.8610    4.3270   -0.2790 C   0  0  1  0  0  0  0  0  0  0  0  0
    0.8990    2.9820   -0.4200 C   0  0  2  0  0  0  0  0  0  0  0  0
   -0.1590    6.4490    0.1680 C   0  0  0  0  0  0  0  0  0  0  0  0
   -2.6490    4.8890    0.6080 N   0  0  0  0  0  0  0  0  0  0  0  0
   -2.5800    2.2190    0.2570 O   0  0  0  0  0  0  0  0  0  0  0  0
    3.0560    2.5040    0.3810 C   0  0  0  0  0  0  0  0  0  0  0  0
    2.0050    5.0250   -0.4770 F   0  0  0  0  0  0  0  0  0  0  0  0
   -2.6430    5.9050    0.4930 H   0  0  0  0  0  0  0  0  0  0  0  0
   -3.4710    4.5140    0.1390 H   0  0  0  0  0  0  0  0  0  0  0  0
   -3.1820    2.7130    0.8410 H   0  0  0  0  0  0  0  0  0  0  0  0
    3.8460    1.7600    0.2380 H   0  0  0  0  0  0  0  0  0  0  0  0
    2.5860    2.3130    1.3530 H   0  0  0  0  0  0  0  0  0  0  0  0
    3.5150    3.4950    0.3600 H   0  0  0  0  0  0  0  0  0  0  0  0
    2.1080    2.3410   -0.6890 O   0  0  0  0  0  0  0  0  0  0  0  0
   -1.2600    7.1080   -0.2520 O   0  0  0  0  0  0  0  0  0  0  0  0
    0.8080    7.0760    0.5650 O   0  0  0  0  0  0  0  0  0  0  0  0
   -1.0020    8.0510   -0.1630 H   0  0  0  0  0  0  0  0  0  0  0  0
  1  5  1  0  0  0  0
  2  1  1  0  0  0  0
  3  2  2  0  0  0  0
  4  2  1  1  0  0  0
  4 10  5  0  0  0  0
  6  4  5  0  0  0  0
  6  7  5  0  0  0  0
  6 13  1  1  0  0  0
  7 12  1  1  0  0  0
  8  7  5  0  0  0  0
  8 11  1  1  0  0  0
  9  8  5  0  0  0  0
  9 15  1  6  0  0  0
 10  9  5  0  0  0  0
 10 22  1  6  0  0  0
 11 24  2  0  0  0  0
 12 16  1  0  0  0  0
 12 17  1  0  0  0  0
 13 18  1  0  0  0  0
 14 19  1  0  0  0  0
 14 20  1  0  0  0  0
 14 21  1  0  0  0  0
 14 22  1  0  0  0  0
 23 11  1  0  0  0  0
 25 23  1  0  0  0  0
M  END
