39

O          0.92600       -0.78900       -0.14100
C         -0.21400       -0.07100       -0.06900
O         -1.31000       -0.61400       -0.08400
C         -0.03000        1.41800        0.01900
H          1.72700       -0.22600       -0.08600
C         -1.17200        2.13400       -0.00300
C         -1.13500        3.47300        0.04400
C          0.03700        4.15700        0.12500
C          1.18300        3.42500        0.19200
C          1.15700        2.06200        0.11900
C         -0.05900        5.68900        0.12200
H         -2.08800        4.00200        0.01500
H         -2.14400        1.64400       -0.06900
O          2.33100        1.30100        0.14300
C          2.44800        4.06100        0.37800
N          3.49600        4.53200        0.54800
C          1.07800        6.57300       -0.35800
N          0.32700        7.72800       -0.82900
N         -0.89900        7.27900       -1.26900
N         -1.12200        6.12500       -0.82700
C          0.28200        8.90700        0.02800
H          1.80900        6.84400        0.40800
H          1.58800        6.15200       -1.23200
H         -0.36300        6.00800        1.13000
H          3.15900        1.82300        0.12800
O          1.13200        9.94000       -0.47700
C         -0.76400       11.01500        0.42700
C         -1.08300        9.55900        0.19200
C          1.23700       12.44900       -0.31900
H         -1.64900        9.10000        1.00800
H         -1.31900       11.62200       -0.29800
H         -1.06800       11.34600        1.42500
H         -1.69600        9.48400       -0.71400
H          1.21600       11.03900        1.24200
C          0.74800       11.11600        0.25100
H          0.66400        8.62600        1.01900
O          0.30900       13.42900       -0.30100
O          2.37100       12.70300       -0.69300
H          0.77600       14.20600       -0.67600
