
 OpenBabel11042013063D

 27 27  0  0  1  0  0  0  0  0999 V2000
    0.5070   -0.0320   -0.0810 O   0  0  0  0  0  0  0  0  0  0  0  0
   -0.4700    0.8870    0.0250 C   0  0  0  0  0  0  0  0  0  0  0  0
   -1.6390    0.5200    0.0700 O   0  0  0  0  0  0  0  0  0  0  0  0
   -0.0600    2.3410    0.0350 C   0  0  2  0  0  0  0  0  0  0  0  0
    1.4100    0.3320   -0.0930 H   0  0  0  0  0  0  0  0  0  0  0  0
   -1.1330    3.1640    0.0050 C   0  0  0  0  0  0  0  0  0  0  0  0
   -0.9960    4.4960    0.0290 C   0  0  0  0  0  0  0  0  0  0  0  0
    0.2260    5.0720    0.0320 C   0  0  2  0  0  0  0  0  0  0  0  0
    1.3310    4.2610    0.0090 C   0  0  1  0  0  0  0  0  0  0  0  0
    1.1820    2.8950    0.0590 C   0  0  1  0  0  0  0  0  0  0  0  0
    0.3570    6.5340    0.1150 C   0  0  0  0  0  0  0  0  0  0  0  0
   -1.9060    5.0890    0.0390 H   0  0  0  0  0  0  0  0  0  0  0  0
   -2.1500    2.7660   -0.0210 H   0  0  0  0  0  0  0  0  0  0  0  0
    2.7470    1.8090    0.2230 Br  0  0  0  0  0  0  0  0  0  0  0  0
    2.7130    4.9000   -0.1360 C   0  0  0  0  0  0  0  0  0  0  0  0
    3.0810    5.2750    0.8240 H   0  0  0  0  0  0  0  0  0  0  0  0
    3.4670    4.2330   -0.5610 H   0  0  0  0  0  0  0  0  0  0  0  0
    2.6860    5.7220   -0.8630 H   0  0  0  0  0  0  0  0  0  0  0  0
   -0.5600    7.5120    0.0260 C   0  0  0  0  0  0  0  0  0  0  0  0
   -0.1490    8.8130    0.1320 N   0  0  0  0  0  0  0  0  0  0  0  0
   -1.6170    7.3210   -0.1350 H   0  0  0  0  0  0  0  0  0  0  0  0
    1.3620    6.9060    0.3100 H   0  0  0  0  0  0  0  0  0  0  0  0
   -1.0050    9.7020   -0.0390 N   0  0  0  0  0  0  0  0  0  0  0  0
   -0.4180   10.9460    0.0160 C   0  0  0  0  0  0  0  0  0  0  0  0
   -1.3370   11.9340   -0.0170 O   0  0  0  0  0  0  0  0  0  0  0  0
    0.7680   11.2460    0.0760 O   0  0  0  0  0  0  0  0  0  0  0  0
   -0.7730   12.7340    0.0170 H   0  0  0  0  0  0  0  0  0  0  0  0
  1  5  1  0  0  0  0
  2  1  1  0  0  0  0
  3  2  2  0  0  0  0
  4  2  1  6  0  0  0
  4 10  5  0  0  0  0
  6  4  5  0  0  0  0
  6  7  5  0  0  0  0
  6 13  1  0  0  0  0
  7 12  1  0  0  0  0
  8  7  5  0  0  0  0
  8 11  1  1  0  0  0
  9  8  5  0  0  0  0
  9 15  1  6  0  0  0
 10  9  5  0  0  0  0
 10 14  1  1  0  0  0
 11 22  1  0  0  0  0
 15 16  1  0  0  0  0
 15 17  1  0  0  0  0
 15 18  1  0  0  0  0
 19 11  2  0  0  0  0
 19 21  1  0  0  0  0
 20 19  1  0  0  0  0
 23 20  2  0  0  0  0
 24 23  1  0  0  0  0
 24 26  2  0  0  0  0
 25 24  1  0  0  0  0
 27 25  1  0  0  0  0
M  END
