
 OpenBabel11042013033D

 38 40  0  0  1  0  0  0  0  0999 V2000
    1.4880   -0.5310    0.1800 O   0  0  0  0  0  0  0  0  0  0  0  0
    0.2920    0.0890    0.2280 C   0  0  0  0  0  0  0  0  0  0  0  0
   -0.7300   -0.5300    0.4820 O   0  0  0  0  0  0  0  0  0  0  0  0
    0.3130    1.5620   -0.0420 C   0  0  1  0  0  0  0  0  0  0  0  0
    2.2430   -0.0040   -0.1270 H   0  0  0  0  0  0  0  0  0  0  0  0
   -0.8970    2.1540   -0.1650 C   0  0  0  0  0  0  0  0  0  0  0  0
   -1.0140    3.4850   -0.3610 C   0  0  2  0  0  0  0  0  0  0  0  0
    0.1130    4.2340   -0.4420 C   0  0  2  0  0  0  0  0  0  0  0  0
    1.3230    3.6470   -0.3370 C   0  0  0  0  0  0  0  0  0  0  0  0
    1.4260    2.3210   -0.1320 C   0  0  0  0  0  0  0  0  0  0  0  0
    0.0630    5.6520   -0.5110 C   0  0  0  0  0  0  0  0  0  0  0  0
   -2.7520    4.2260   -0.4640 Br  0  0  0  0  0  0  0  0  0  0  0  0
   -1.8060    1.5570   -0.0770 H   0  0  0  0  0  0  0  0  0  0  0  0
    2.4270    1.9240   -0.0150 H   0  0  0  0  0  0  0  0  0  0  0  0
    2.2270    4.2520   -0.3840 H   0  0  0  0  0  0  0  0  0  0  0  0
   -0.0870    6.8190   -0.2890 C   0  0  0  0  0  0  0  0  0  0  0  0
   -0.4330    8.1100    0.2760 C   0  0  1  0  0  0  0  0  0  0  0  0
    0.6220    9.1730    0.1810 C   0  0  0  0  0  0  0  0  0  0  0  0
   -0.2300   10.3050   -0.0680 N   0  0  0  0  0  0  0  0  0  0  0  0
   -1.4580    9.9190   -0.5420 N   0  0  0  0  0  0  0  0  0  0  0  0
   -1.5580    8.6680   -0.4890 N   0  0  0  0  0  0  0  0  0  0  0  0
    0.0910   11.6420    0.0030 C   0  0  2  0  0  0  0  0  0  0  0  0
    1.3160    9.0430   -0.6560 H   0  0  0  0  0  0  0  0  0  0  0  0
    1.1710    9.2830    1.1210 H   0  0  0  0  0  0  0  0  0  0  0  0
   -0.7630    7.9800    1.3140 H   0  0  0  0  0  0  0  0  0  0  0  0
   -0.9030   12.5610    0.0180 C   0  0  0  0  0  0  0  0  0  0  0  0
   -0.6410   13.8770    0.0650 C   0  0  0  0  0  0  0  0  0  0  0  0
    0.6350   14.3030    0.0840 C   0  0  1  0  0  0  0  0  0  0  0  0
    1.6420   13.4070    0.0860 C   0  0  0  0  0  0  0  0  0  0  0  0
    1.3690   12.0870    0.0570 C   0  0  0  0  0  0  0  0  0  0  0  0
    0.9540   15.7560    0.0850 C   0  0  0  0  0  0  0  0  0  0  0  0
   -1.4760   14.5710    0.0780 H   0  0  0  0  0  0  0  0  0  0  0  0
   -1.9430   12.2490    0.0050 H   0  0  0  0  0  0  0  0  0  0  0  0
    2.2020   11.3870    0.0490 H   0  0  0  0  0  0  0  0  0  0  0  0
    2.6780   13.7370    0.1010 H   0  0  0  0  0  0  0  0  0  0  0  0
   -0.1390   16.5400    0.0070 O   0  0  0  0  0  0  0  0  0  0  0  0
    2.0720   16.2460    0.1290 O   0  0  0  0  0  0  0  0  0  0  0  0
    0.2200   17.4490   -0.0140 H   0  0  0  0  0  0  0  0  0  0  0  0
  1  5  1  0  0  0  0
  2  1  1  0  0  0  0
  3  2  2  0  0  0  0
  4  2  1  1  0  0  0
  4 10  5  0  0  0  0
  6  4  5  0  0  0  0
  6  7  5  0  0  0  0
  6 13  1  0  0  0  0
  7 12  1  1  0  0  0
  8  7  5  0  0  0  0
  8 11  1  1  0  0  0
  9  8  5  0  0  0  0
  9 15  1  0  0  0  0
 10  9  5  0  0  0  0
 10 14  1  0  0  0  0
 16 11  3  0  0  0  0
 17 16  1  0  0  0  0
 17 21  1  0  0  0  0
 17 25  1  1  0  0  0
 18 17  1  0  0  0  0
 18 23  1  0  0  0  0
 18 24  1  0  0  0  0
 19 18  1  0  0  0  0
 20 19  1  0  0  0  0
 21 20  2  0  0  0  0
 22 19  1  6  0  0  0
 22 30  5  0  0  0  0
 26 22  5  0  0  0  0
 26 27  5  0  0  0  0
 26 33  1  0  0  0  0
 27 32  1  0  0  0  0
 28 27  5  0  0  0  0
 28 31  1  6  0  0  0
 29 28  5  0  0  0  0
 29 35  1  0  0  0  0
 30 29  5  0  0  0  0
 30 34  1  0  0  0  0
 31 37  2  0  0  0  0
 36 31  1  0  0  0  0
 38 36  1  0  0  0  0
M  END
