
 OpenBabel02032115563D

 38 39  0  0  1  0  0  0  0  0999 V2000
    1.5600    0.7090   -0.2160 O   0  0  0  0  0  0  0  0  0  0  0  0
    0.9860    1.9390   -0.2950 C   0  0  0  0  0  0  0  0  0  0  0  0
   -0.1640    1.6570   -0.5680 O   0  0  0  0  0  0  0  0  0  0  0  0
    1.0690    3.4220   -0.2020 C   0  0  1  0  0  0  0  0  0  0  0  0
    2.5030    0.4170    0.0000 H   0  0  0  0  0  0  0  0  0  0  0  0
   -0.0060    4.2270   -0.4320 C   0  0  0  0  0  0  0  0  0  0  0  0
    0.0230    5.5740   -0.3470 C   0  0  0  0  0  0  0  0  0  0  0  0
    1.1280    6.2630   -0.0070 C   0  0  2  0  0  0  0  0  0  0  0  0
    2.1940    5.4560    0.2150 C   0  0  0  0  0  0  0  0  0  0  0  0
    2.1920    4.0970    0.1170 C   0  0  1  0  0  0  0  0  0  0  0  0
    1.2440    7.5880    0.1580 N   0  0  0  0  0  0  0  0  0  0  0  0
   -0.9060    6.1070   -0.5380 H   0  0  0  0  0  0  0  0  0  0  0  0
   -0.9720    3.8030   -0.6960 H   0  0  0  0  0  0  0  0  0  0  0  0
    3.4810    3.3340    0.3750 C   0  0  0  0  0  0  0  0  0  0  0  0
    3.1270    5.9400    0.4940 H   0  0  0  0  0  0  0  0  0  0  0  0
    0.3130    8.3600   -0.3220 N   0  0  0  0  0  0  0  0  0  0  0  0
    0.0610    9.7620    0.3040 C   0  0  1  0  0  0  0  0  0  0  0  0
    0.8180   11.0440   -0.2120 C   0  0  0  0  0  0  0  0  0  0  0  0
   -0.0660   12.2520    0.3050 C   0  0  2  0  0  0  0  0  0  0  0  0
   -1.4050   11.7070   -0.0010 N   0  0  0  0  0  0  0  0  0  0  0  0
   -1.3450   10.2320    0.1540 N   0  0  0  0  0  0  0  0  0  0  0  0
    0.1990   13.7410   -0.1750 C   0  0  0  0  0  0  0  0  0  0  0  0
   -1.9230    9.9920    0.9580 H   0  0  0  0  0  0  0  0  0  0  0  0
   -1.6330   11.8330   -0.9860 H   0  0  0  0  0  0  0  0  0  0  0  0
    1.8350   11.0880    0.1830 H   0  0  0  0  0  0  0  0  0  0  0  0
    0.0300   12.2560    1.3940 H   0  0  0  0  0  0  0  0  0  0  0  0
    0.8620   11.0430   -1.3040 H   0  0  0  0  0  0  0  0  0  0  0  0
    0.2470    9.6750    1.3850 H   0  0  0  0  0  0  0  0  0  0  0  0
    3.3510    2.6140    1.1860 H   0  0  0  0  0  0  0  0  0  0  0  0
    3.7830    2.7870   -0.5220 H   0  0  0  0  0  0  0  0  0  0  0  0
    4.3020    4.0000    0.6490 H   0  0  0  0  0  0  0  0  0  0  0  0
   -0.4810   14.8930    0.1850 C   0  0  0  0  0  0  0  0  0  0  0  0
   -0.1250   16.3470   -0.2080 C   0  0  0  0  0  0  0  0  0  0  0  0
   -1.3530   14.8010    0.8310 H   0  0  0  0  0  0  0  0  0  0  0  0
    1.0780   13.8450   -0.8060 H   0  0  0  0  0  0  0  0  0  0  0  0
   -0.8920   17.3680    0.2410 O   0  0  0  0  0  0  0  0  0  0  0  0
    0.8560   16.5830   -0.8820 O   0  0  0  0  0  0  0  0  0  0  0  0
   -0.6500   18.3550    0.0000 H   0  0  0  0  0  0  0  0  0  0  0  0
  1  5  1  0  0  0  0
  2  1  1  0  0  0  0
  3  2  2  0  0  0  0
  4  2  1  1  0  0  0
  4 10  5  0  0  0  0
  6  4  5  0  0  0  0
  6  7  5  0  0  0  0
  6 13  1  0  0  0  0
  7 12  1  0  0  0  0
  8  7  5  0  0  0  0
  8 11  1  1  0  0  0
  9  8  5  0  0  0  0
  9 15  1  0  0  0  0
 10  9  5  0  0  0  0
 10 14  1  1  0  0  0
 14 29  1  0  0  0  0
 14 30  1  0  0  0  0
 14 31  1  0  0  0  0
 16 11  2  0  0  0  0
 17 16  1  0  0  0  0
 17 21  1  0  0  0  0
 17 28  1  1  0  0  0
 18 17  1  0  0  0  0
 18 25  1  0  0  0  0
 18 27  1  0  0  0  0
 19 18  1  0  0  0  0
 19 26  1  1  0  0  0
 20 19  1  0  0  0  0
 21 20  1  0  0  0  0
 22 19  1  0  0  0  0
 22 35  1  0  0  0  0
 23 21  1  0  0  0  0
 24 20  1  0  0  0  0
 32 22  2  0  0  0  0
 32 34  1  0  0  0  0
 33 32  1  0  0  0  0
 33 37  2  0  0  0  0
 36 33  1  0  0  0  0
 38 36  1  0  0  0  0
M  END
