50

O          1.10600        0.55600       -0.15200
C         -0.02100        1.28500       -0.09200
O         -1.11200        0.73800       -0.01100
C          0.16200        2.77900       -0.11300
H          1.92700        1.04200       -0.27300
C         -0.97900        3.49200       -0.15800
C         -1.00900        4.85000       -0.10300
C          0.16600        5.57400        0.00500
C          1.30900        4.83900       -0.00900
C          1.31500        3.47900       -0.05900
C          0.27300        7.11900        0.28900
C         -2.41700        5.41200       -0.11000
H         -1.92300        2.94200       -0.19900
H          2.27800        2.97800       -0.01200
H          2.26900        5.33300        0.07800
C          1.44300        8.10300       -0.10700
C          0.92200        9.52000        0.37100
N         -0.54600        9.24500        0.46400
N         -0.80600        7.98300       -0.18500
C          1.13100       10.89300       -0.42600
H         -1.70200        7.63300        0.14200
H         -1.05700       10.01500        0.01100
H          2.36600        7.83100        0.41800
H          1.27800        9.67500        1.39700
H          1.63200        8.08200       -1.18700
H          0.23900        7.12600        1.39200
C          2.15800       11.99600       -0.02000
N          1.32500       13.20700       -0.01000
N          0.01000       12.86400       -0.01500
N         -0.14700       11.65100       -0.23600
C          1.61100       14.58900       -0.01400
H          2.96000       12.09700       -0.75900
H          2.57700       11.84400        0.97900
H          1.20800       10.68800       -1.49900
H         -3.17200        4.64600       -0.34200
H         -2.54700        6.15900       -0.89500
H         -2.68000        5.81200        0.87300
C          0.57400       15.47600        0.01300
C          0.73500       16.81100       -0.00200
C          1.96700       17.34300       -0.05300
C          3.02300       16.49800       -0.08400
C          2.85000       15.14700       -0.05900
C          2.15800       18.82700       -0.06500
H         -0.15500       17.44200        0.01900
H         -0.45500       15.12400        0.04800
H          3.73900       14.52700       -0.09800
H          4.02700       16.92100       -0.12800
O          1.00100       19.52400       -0.02700
O          3.22600       19.41400       -0.09800
H          1.27700       20.46400       -0.02900
