29

O          1.31800        0.43700        0.19400
C          0.17600        1.13700        0.04500
O         -0.90300        0.57100       -0.06900
C          0.33200        2.63000        0.02300
H          2.08300        1.01000        0.41700
C         -0.81300        3.33200        0.02600
C         -0.86000        4.68800        0.01900
C          0.32600        5.39200       -0.02300
C          1.49300        4.65700       -0.04000
C          1.49100        3.29600       -0.02100
C          0.40700        6.88400       -0.02300
C         -2.24800        5.32500        0.05800
H         -1.73500        2.75800        0.04900
O          2.68200        2.56000       -0.02000
Cl         3.08300        5.41400       -0.10400
C         -0.53600        7.84500       -0.05800
C         -0.16500        9.28200       -0.02900
H         -1.60000        7.68800       -0.09800
H          1.42300        7.28800        0.02000
C         -3.48600        4.42400        0.10800
H         -3.49900        3.81800        1.02300
H         -3.53600        3.76300       -0.76000
H         -4.39500        5.03800        0.10700
H         -2.30500        5.96000        0.95000
H         -2.37300        5.93600       -0.84400
H          3.05000        2.50900       -0.92600
O         -1.27500       10.03500       -0.01000
O          0.94800        9.75000       -0.01600
H         -0.93900       10.95500        0.01900
