
 OpenBabel11042013063D

 29 29  0  0  1  0  0  0  0  0999 V2000
    1.3180    0.4370    0.1940 O   0  0  0  0  0  0  0  0  0  0  0  0
    0.1760    1.1370    0.0450 C   0  0  0  0  0  0  0  0  0  0  0  0
   -0.9030    0.5710   -0.0690 O   0  0  0  0  0  0  0  0  0  0  0  0
    0.3320    2.6300    0.0230 C   0  0  2  0  0  0  0  0  0  0  0  0
    2.0830    1.0100    0.4170 H   0  0  0  0  0  0  0  0  0  0  0  0
   -0.8130    3.3320    0.0260 C   0  0  0  0  0  0  0  0  0  0  0  0
   -0.8600    4.6880    0.0190 C   0  0  1  0  0  0  0  0  0  0  0  0
    0.3260    5.3920   -0.0230 C   0  0  2  0  0  0  0  0  0  0  0  0
    1.4930    4.6570   -0.0400 C   0  0  1  0  0  0  0  0  0  0  0  0
    1.4910    3.2960   -0.0210 C   0  0  1  0  0  0  0  0  0  0  0  0
    0.4070    6.8840   -0.0230 C   0  0  0  0  0  0  0  0  0  0  0  0
   -2.2480    5.3250    0.0580 C   0  0  0  0  0  0  0  0  0  0  0  0
   -1.7350    2.7580    0.0490 H   0  0  0  0  0  0  0  0  0  0  0  0
    2.6820    2.5600   -0.0200 O   0  0  0  0  0  0  0  0  0  0  0  0
    3.0830    5.4140   -0.1040 Cl  0  0  0  0  0  0  0  0  0  0  0  0
   -0.5360    7.8450   -0.0580 C   0  0  0  0  0  0  0  0  0  0  0  0
   -0.1650    9.2820   -0.0290 C   0  0  0  0  0  0  0  0  0  0  0  0
   -1.6000    7.6880   -0.0980 H   0  0  0  0  0  0  0  0  0  0  0  0
    1.4230    7.2880    0.0200 H   0  0  0  0  0  0  0  0  0  0  0  0
   -3.4860    4.4240    0.1080 C   0  0  0  0  0  0  0  0  0  0  0  0
   -3.4990    3.8180    1.0230 H   0  0  0  0  0  0  0  0  0  0  0  0
   -3.5360    3.7630   -0.7600 H   0  0  0  0  0  0  0  0  0  0  0  0
   -4.3950    5.0380    0.1070 H   0  0  0  0  0  0  0  0  0  0  0  0
   -2.3050    5.9600    0.9500 H   0  0  0  0  0  0  0  0  0  0  0  0
   -2.3730    5.9360   -0.8440 H   0  0  0  0  0  0  0  0  0  0  0  0
    3.0500    2.5090   -0.9260 H   0  0  0  0  0  0  0  0  0  0  0  0
   -1.2750   10.0350   -0.0100 O   0  0  0  0  0  0  0  0  0  0  0  0
    0.9480    9.7500   -0.0160 O   0  0  0  0  0  0  0  0  0  0  0  0
   -0.9390   10.9550    0.0190 H   0  0  0  0  0  0  0  0  0  0  0  0
  1  5  1  0  0  0  0
  2  1  1  0  0  0  0
  3  2  2  0  0  0  0
  4  2  1  6  0  0  0
  4 10  5  0  0  0  0
  6  4  5  0  0  0  0
  6  7  5  0  0  0  0
  6 13  1  0  0  0  0
  7 12  1  6  0  0  0
  8  7  5  0  0  0  0
  8 11  1  1  0  0  0
  9  8  5  0  0  0  0
  9 15  1  6  0  0  0
 10  9  5  0  0  0  0
 10 14  1  1  0  0  0
 11 19  1  0  0  0  0
 12 24  1  0  0  0  0
 12 25  1  0  0  0  0
 14 26  1  0  0  0  0
 16 11  2  0  0  0  0
 16 18  1  0  0  0  0
 17 16  1  0  0  0  0
 17 28  2  0  0  0  0
 20 21  1  0  0  0  0
 20 22  1  0  0  0  0
 20 23  1  0  0  0  0
 20 12  1  0  0  0  0
 27 17  1  0  0  0  0
 29 27  1  0  0  0  0
M  END
