
 OpenBabel11042013063D

 38 40  0  0  1  0  0  0  0  0999 V2000
    0.7310   -0.3480   -0.4750 O   0  0  0  0  0  0  0  0  0  0  0  0
   -0.4160    0.3650   -0.5300 C   0  0  0  0  0  0  0  0  0  0  0  0
   -1.4770   -0.1590   -0.8360 O   0  0  0  0  0  0  0  0  0  0  0  0
   -0.2760    1.8270   -0.2110 C   0  0  1  0  0  0  0  0  0  0  0  0
    1.4820    0.1820   -0.1320 H   0  0  0  0  0  0  0  0  0  0  0  0
   -1.3370    2.6010   -0.5090 C   0  0  0  0  0  0  0  0  0  0  0  0
   -1.3230    3.9140   -0.2210 C   0  0  0  0  0  0  0  0  0  0  0  0
   -0.2700    4.5060    0.3880 C   0  0  2  0  0  0  0  0  0  0  0  0
    0.8050    3.7170    0.6810 C   0  0  2  0  0  0  0  0  0  0  0  0
    0.8070    2.3920    0.3690 C   0  0  1  0  0  0  0  0  0  0  0  0
   -0.3360    5.9880    0.7990 C   0  0  1  0  0  0  0  0  0  0  0  0
   -2.2230    4.4810   -0.4750 H   0  0  0  0  0  0  0  0  0  0  0  0
   -2.2250    2.1680   -0.9740 H   0  0  0  0  0  0  0  0  0  0  0  0
    1.9230    1.5960    0.6540 O   0  0  0  0  0  0  0  0  0  0  0  0
    2.3380    4.4010    1.5800 Br  0  0  0  0  0  0  0  0  0  0  0  0
    0.6580    6.9680    0.1920 C   0  0  0  0  0  0  0  0  0  0  0  0
   -0.1260    8.1880    0.2480 N   0  0  0  0  0  0  0  0  0  0  0  0
   -1.4600    7.8590    0.1690 N   0  0  0  0  0  0  0  0  0  0  0  0
   -1.6210    6.6400    0.4310 N   0  0  0  0  0  0  0  0  0  0  0  0
    0.3090    9.3830   -0.4430 C   0  0  2  0  0  0  0  0  0  0  0  0
    0.8840    6.7370   -0.8550 H   0  0  0  0  0  0  0  0  0  0  0  0
    1.5770    7.0980    0.7660 H   0  0  0  0  0  0  0  0  0  0  0  0
   -0.2890    6.0350    1.8960 H   0  0  0  0  0  0  0  0  0  0  0  0
    1.5460   10.1040    0.0780 C   0  0  0  0  0  0  0  0  0  0  0  0
    1.3700   11.5120   -0.5060 C   0  0  1  0  0  0  0  0  0  0  0  0
   -0.0720   11.6050   -0.8670 N   0  0  0  0  0  0  0  0  0  0  0  0
   -0.6760   10.4450   -0.2610 N   0  0  0  0  0  0  0  0  0  0  0  0
    1.7630   12.6510    0.4340 C   0  0  0  0  0  0  0  0  0  0  0  0
   -1.5520   10.1530   -0.6990 H   0  0  0  0  0  0  0  0  0  0  0  0
   -0.4430   12.4800   -0.4670 H   0  0  0  0  0  0  0  0  0  0  0  0
    2.4690    9.6320   -0.2760 H   0  0  0  0  0  0  0  0  0  0  0  0
    1.9560   11.6320   -1.4240 H   0  0  0  0  0  0  0  0  0  0  0  0
    1.5790   10.1220    1.1760 H   0  0  0  0  0  0  0  0  0  0  0  0
    0.4190    9.1340   -1.5060 H   0  0  0  0  0  0  0  0  0  0  0  0
    2.6330    2.1270    1.0710 H   0  0  0  0  0  0  0  0  0  0  0  0
    0.8610   13.6650    0.4530 O   0  0  0  0  0  0  0  0  0  0  0  0
    2.8020   12.7440    1.0680 O   0  0  0  0  0  0  0  0  0  0  0  0
    1.2570   14.3440    1.0380 H   0  0  0  0  0  0  0  0  0  0  0  0
  1  5  1  0  0  0  0
  2  1  1  0  0  0  0
  3  2  2  0  0  0  0
  4  2  1  1  0  0  0
  4 10  5  0  0  0  0
  6  4  5  0  0  0  0
  6  7  5  0  0  0  0
  6 13  1  0  0  0  0
  7 12  1  0  0  0  0
  8  7  5  1  0  0  0
  8 11  1  0  0  0  0
  9  8  5  0  0  0  0
  9 15  1  1  0  0  0
 10  9  5  0  0  0  0
 10 14  1  1  0  0  0
 11 19  1  0  0  0  0
 11 23  1  1  0  0  0
 14 35  1  0  0  0  0
 16 11  1  0  0  0  0
 16 21  1  0  0  0  0
 16 22  1  0  0  0  0
 17 16  1  0  0  0  0
 18 17  1  0  0  0  0
 19 18  2  0  0  0  0
 20 17  1  0  0  0  0
 20 27  1  0  0  0  0
 20 34  1  6  0  0  0
 24 20  1  0  0  0  0
 24 31  1  0  0  0  0
 24 33  1  0  0  0  0
 25 24  1  0  0  0  0
 25 32  1  6  0  0  0
 26 25  1  0  0  0  0
 27 26  1  0  0  0  0
 28 25  1  0  0  0  0
 28 37  2  0  0  0  0
 29 27  1  0  0  0  0
 30 26  1  0  0  0  0
 36 28  1  0  0  0  0
 38 36  1  0  0  0  0
M  END
