
 OpenBabel11042013063D

 25 25  0  0  1  0  0  0  0  0999 V2000
    1.3760    0.5700    0.1280 O   0  0  0  0  0  0  0  0  0  0  0  0
    0.2000    1.2290    0.0510 C   0  0  0  0  0  0  0  0  0  0  0  0
   -0.8520    0.6050    0.0380 O   0  0  0  0  0  0  0  0  0  0  0  0
    0.2680    2.7320    0.0220 C   0  0  2  0  0  0  0  0  0  0  0  0
    2.1850    1.0810    0.2810 H   0  0  0  0  0  0  0  0  0  0  0  0
   -0.8810    3.4470    0.1660 C   0  0  2  0  0  0  0  0  0  0  0  0
   -0.8510    4.7950    0.0710 C   0  0  2  0  0  0  0  0  0  0  0  0
    0.3240    5.4520   -0.0900 C   0  0  2  0  0  0  0  0  0  0  0  0
    1.4840    4.7520   -0.1840 C   0  0  1  0  0  0  0  0  0  0  0  0
    1.4310    3.3990   -0.1670 C   0  0  0  0  0  0  0  0  0  0  0  0
    0.3220    6.8820   -0.1310 C   0  0  0  0  0  0  0  0  0  0  0  0
   -2.0840    5.5210    0.1780 C   0  0  0  0  0  0  0  0  0  0  0  0
   -2.1140    2.8640    0.4310 O   0  0  0  0  0  0  0  0  0  0  0  0
    2.3700    2.8750   -0.3050 H   0  0  0  0  0  0  0  0  0  0  0  0
    2.8300    5.4350   -0.3130 C   0  0  0  0  0  0  0  0  0  0  0  0
   -2.0570    2.1090    1.0470 H   0  0  0  0  0  0  0  0  0  0  0  0
   -3.0720    6.1280    0.2570 N   0  0  0  0  0  0  0  0  0  0  0  0
    0.2190    8.0810   -0.1580 C   0  0  0  0  0  0  0  0  0  0  0  0
    0.0050    9.4970   -0.1600 C   0  0  0  0  0  0  0  0  0  0  0  0
    2.8030    6.2730   -1.0160 H   0  0  0  0  0  0  0  0  0  0  0  0
    3.6060    4.7490   -0.6730 H   0  0  0  0  0  0  0  0  0  0  0  0
    3.1490    5.8050    0.6690 H   0  0  0  0  0  0  0  0  0  0  0  0
   -1.2890    9.8680   -0.1690 O   0  0  0  0  0  0  0  0  0  0  0  0
    0.9200   10.3010   -0.1580 O   0  0  0  0  0  0  0  0  0  0  0  0
   -1.2600   10.8460   -0.1520 H   0  0  0  0  0  0  0  0  0  0  0  0
  1  5  1  0  0  0  0
  2  1  1  0  0  0  0
  3  2  2  0  0  0  0
  4  2  1  6  0  0  0
  4 10  5  0  0  0  0
  6  4  5  0  0  0  0
  6  7  5  0  0  0  0
  6 13  1  1  0  0  0
  7 12  1  1  0  0  0
  8  7  5  0  0  0  0
  8 11  1  1  0  0  0
  9  8  5  0  0  0  0
  9 15  1  6  0  0  0
 10  9  5  0  0  0  0
 10 14  1  0  0  0  0
 12 17  3  0  0  0  0
 13 16  1  0  0  0  0
 15 20  1  0  0  0  0
 15 21  1  0  0  0  0
 15 22  1  0  0  0  0
 18 11  3  0  0  0  0
 19 18  1  0  0  0  0
 19 24  2  0  0  0  0
 23 19  1  0  0  0  0
 25 23  1  0  0  0  0
M  END
