25

O          1.37600        0.57000        0.12800
C          0.20000        1.22900        0.05100
O         -0.85200        0.60500        0.03800
C          0.26800        2.73200        0.02200
H          2.18500        1.08100        0.28100
C         -0.88100        3.44700        0.16600
C         -0.85100        4.79500        0.07100
C          0.32400        5.45200       -0.09000
C          1.48400        4.75200       -0.18400
C          1.43100        3.39900       -0.16700
C          0.32200        6.88200       -0.13100
C         -2.08400        5.52100        0.17800
O         -2.11400        2.86400        0.43100
H          2.37000        2.87500       -0.30500
C          2.83000        5.43500       -0.31300
H         -2.05700        2.10900        1.04700
N         -3.07200        6.12800        0.25700
C          0.21900        8.08100       -0.15800
C          0.00500        9.49700       -0.16000
H          2.80300        6.27300       -1.01600
H          3.60600        4.74900       -0.67300
H          3.14900        5.80500        0.66900
O         -1.28900        9.86800       -0.16900
O          0.92000       10.30100       -0.15800
H         -1.26000       10.84600       -0.15200
