
 OpenBabel11042013063D

 39 41  0  0  1  0  0  0  0  0999 V2000
    1.2520   -0.8560    0.0550 O   0  0  0  0  0  0  0  0  0  0  0  0
    0.1220   -0.1320    0.1170 C   0  0  0  0  0  0  0  0  0  0  0  0
   -0.9610   -0.7040    0.1510 O   0  0  0  0  0  0  0  0  0  0  0  0
    0.2660    1.3700    0.0830 C   0  0  2  0  0  0  0  0  0  0  0  0
    2.0680   -0.3250    0.0260 H   0  0  0  0  0  0  0  0  0  0  0  0
   -0.9450    1.9620    0.0540 C   0  0  0  0  0  0  0  0  0  0  0  0
   -1.0610    3.2870   -0.0390 C   0  0  0  0  0  0  0  0  0  0  0  0
    0.0190    4.0940   -0.1250 C   0  0  1  0  0  0  0  0  0  0  0  0
    1.2640    3.5240   -0.0580 C   0  0  1  0  0  0  0  0  0  0  0  0
    1.3800    2.1560    0.0530 C   0  0  1  0  0  0  0  0  0  0  0  0
   -0.3110    5.5750   -0.3200 C   0  0  2  0  0  0  0  0  0  0  0  0
   -2.0730    3.6910   -0.0740 H   0  0  0  0  0  0  0  0  0  0  0  0
   -1.8730    1.3890    0.1050 H   0  0  0  0  0  0  0  0  0  0  0  0
    3.1210    1.3770    0.1750 Br  0  0  0  0  0  0  0  0  0  0  0  0
    2.5100    4.3970   -0.1590 C   0  0  0  0  0  0  0  0  0  0  0  0
    0.6380    6.6640    0.1120 C   0  0  0  0  0  0  0  0  0  0  0  0
   -0.3020    7.7110    0.3860 N   0  0  0  0  0  0  0  0  0  0  0  0
   -1.5470    7.2150    0.6330 N   0  0  0  0  0  0  0  0  0  0  0  0
   -1.5540    5.9820    0.4000 N   0  0  0  0  0  0  0  0  0  0  0  0
   -0.0710    9.0590    0.2650 C   0  0  2  0  0  0  0  0  0  0  0  0
    1.3090    6.9580   -0.6990 H   0  0  0  0  0  0  0  0  0  0  0  0
    1.1810    6.4480    1.0360 H   0  0  0  0  0  0  0  0  0  0  0  0
   -0.5260    5.7060   -1.3930 H   0  0  0  0  0  0  0  0  0  0  0  0
    2.7520    4.8290    0.8190 H   0  0  0  0  0  0  0  0  0  0  0  0
    3.4040    3.8830   -0.5170 H   0  0  0  0  0  0  0  0  0  0  0  0
    2.3880    5.1900   -0.9000 H   0  0  0  0  0  0  0  0  0  0  0  0
   -1.1130    9.9150    0.1680 C   0  0  0  0  0  0  0  0  0  0  0  0
   -0.9160   11.2350    0.0180 C   0  0  0  0  0  0  0  0  0  0  0  0
    0.3390   11.7290   -0.0230 C   0  0  2  0  0  0  0  0  0  0  0  0
    1.3920   10.8900    0.0640 C   0  0  0  0  0  0  0  0  0  0  0  0
    1.1850    9.5640    0.2050 C   0  0  0  0  0  0  0  0  0  0  0  0
    0.5870   13.1860   -0.1490 C   0  0  0  0  0  0  0  0  0  0  0  0
   -1.7820   11.8820   -0.0700 H   0  0  0  0  0  0  0  0  0  0  0  0
   -2.1360    9.5490    0.1870 H   0  0  0  0  0  0  0  0  0  0  0  0
    2.0540    8.9190    0.2790 H   0  0  0  0  0  0  0  0  0  0  0  0
    2.4120   11.2680    0.0290 H   0  0  0  0  0  0  0  0  0  0  0  0
   -0.5460   13.9140   -0.1170 O   0  0  0  0  0  0  0  0  0  0  0  0
    1.6740   13.7270   -0.2440 O   0  0  0  0  0  0  0  0  0  0  0  0
   -0.2370   14.8390   -0.1580 H   0  0  0  0  0  0  0  0  0  0  0  0
  1  5  1  0  0  0  0
  2  1  1  0  0  0  0
  3  2  2  0  0  0  0
  4  2  1  6  0  0  0
  4 10  5  0  0  0  0
  6  4  5  0  0  0  0
  6  7  5  0  0  0  0
  6 13  1  0  0  0  0
  7 12  1  0  0  0  0
  8  7  5  6  0  0  0
  8 11  1  0  0  0  0
  9  8  5  0  0  0  0
  9 15  1  6  0  0  0
 10  9  5  0  0  0  0
 10 14  1  1  0  0  0
 11 19  1  0  0  0  0
 11 23  1  6  0  0  0
 15 24  1  0  0  0  0
 15 25  1  0  0  0  0
 15 26  1  0  0  0  0
 16 11  1  0  0  0  0
 16 21  1  0  0  0  0
 16 22  1  0  0  0  0
 17 16  1  0  0  0  0
 18 17  1  0  0  0  0
 19 18  2  0  0  0  0
 20 17  1  6  0  0  0
 20 31  5  0  0  0  0
 27 20  5  0  0  0  0
 27 28  5  0  0  0  0
 27 34  1  0  0  0  0
 28 33  1  0  0  0  0
 29 28  5  0  0  0  0
 29 32  1  1  0  0  0
 30 29  5  0  0  0  0
 30 36  1  0  0  0  0
 31 30  5  0  0  0  0
 31 35  1  0  0  0  0
 32 38  2  0  0  0  0
 37 32  1  0  0  0  0
 39 37  1  0  0  0  0
M  END
