42

O          1.24000        0.67900       -0.00000
C         -0.01500        1.21600       -0.00700
O         -1.16800        0.72500        0.00000
C          0.35900        2.09400        0.01700
H          2.45500        0.43600        0.00000
C         -0.04200        3.23900        0.06300
C         -0.79100        2.91600       -0.07900
C         -0.06400        4.72000       -0.02100
C          1.12300        4.61500       -0.00700
C          1.20700        3.22000       -0.00100
C          0.86400        6.34100       -0.00100
C         -2.39600        3.68000        0.13700
H         -1.48700        2.39700        0.00800
H          2.06700        2.76300       -0.00100
H          0.23200        5.02400       -0.00200
H         -1.56000        4.24700       -0.06400
H         -1.62900        3.91000       -0.32700
H         -1.83400        4.45000       -0.00400
O         -1.04500        4.06300        0.25500
C         -0.94800        7.22700        0.00000
C         -0.52200        9.12400       -0.00000
C          1.39700        9.04300        0.00000
C          2.81400        7.74700        0.00000
C          2.57600        6.37500        0.00000
C          1.75400       11.09700        0.00000
H         -1.69000       10.47300        0.00000
H         -1.77500        7.16300        0.00000
C          3.20000        4.95400        0.00000
H          4.13800        8.56700        0.00000
C          1.52500       12.75800       -0.00000
C          1.75000       14.22100        0.00000
H          0.02000       12.99700        0.00000
H          2.73600       11.39700        0.00000
C          3.20000        4.95300        0.00000
H          2.66400        4.21000       -0.00000
H          3.20000        4.95200        0.00000
H          2.83200        4.14000        0.00000
H          2.31500        5.68300       -0.00000
H          4.25300        4.38600       -0.00000
O          0.23100       15.33000       -0.00000
O          2.98400       15.04800       -0.00000
H          0.01300       16.77300        0.00000
