
 OpenBabel02032115563D

 41 43  0  0  1  0  0  0  0  0999 V2000
    1.7500   -0.1830   -0.0870 O   0  0  0  0  0  0  0  0  0  0  0  0
    0.6680    0.5450   -0.1240 C   0  0  0  0  0  0  0  0  0  0  0  0
   -0.3580   -0.1060   -0.1690 O   0  0  0  0  0  0  0  0  0  0  0  0
    0.5410    1.9810   -0.0920 C   0  0  1  0  0  0  0  0  0  0  0  0
    2.5030    0.4170    0.0000 H   0  0  0  0  0  0  0  0  0  0  0  0
   -0.6720    2.5190    0.0570 C   0  0  0  0  0  0  0  0  0  0  0  0
   -0.9000    3.8360    0.1160 C   0  0  2  0  0  0  0  0  0  0  0  0
    0.1200    4.7410    0.0070 C   0  0  2  0  0  0  0  0  0  0  0  0
    1.3420    4.1760   -0.1430 C   0  0  0  0  0  0  0  0  0  0  0  0
    1.5560    2.8520   -0.1900 C   0  0  2  0  0  0  0  0  0  0  0  0
   -0.0130    6.1170    0.0520 C   0  0  1  0  0  0  0  0  0  0  0  0
   -2.1940    4.0980    0.3600 N   0  0  0  0  0  0  0  0  0  0  0  0
   -1.5350    1.8610    0.1670 H   0  0  0  0  0  0  0  0  0  0  0  0
    3.3640    2.3360   -0.4340 Br  0  0  0  0  0  0  0  0  0  0  0  0
    2.2340    4.7740   -0.2680 H   0  0  0  0  0  0  0  0  0  0  0  0
   -2.4580    4.4960    1.2580 H   0  0  0  0  0  0  0  0  0  0  0  0
   -2.7400    4.5880   -0.3460 H   0  0  0  0  0  0  0  0  0  0  0  0
   -1.2000    6.7520   -0.0390 C   0  0  0  0  0  0  0  0  0  0  0  0
   -1.3440    8.0690    0.0570 C   0  0  0  0  0  0  0  0  0  0  0  0
   -0.3110    8.8960    0.2240 C   0  0  2  0  0  0  0  0  0  0  0  0
    0.8920    8.3120    0.2870 C   0  0  0  0  0  0  0  0  0  0  0  0
    1.0330    6.9740    0.1990 C   0  0  0  0  0  0  0  0  0  0  0  0
   -0.6040   10.4110    0.3790 C   0  0  1  0  0  0  0  0  0  0  0  0
   -2.3590    8.4530   -0.0020 H   0  0  0  0  0  0  0  0  0  0  0  0
   -2.1350    6.2620   -0.2330 H   0  0  0  0  0  0  0  0  0  0  0  0
    2.0530    6.6260    0.3040 H   0  0  0  0  0  0  0  0  0  0  0  0
    1.7800    8.9220    0.4360 H   0  0  0  0  0  0  0  0  0  0  0  0
    0.4520   11.4900    0.0140 C   0  0  0  0  0  0  0  0  0  0  0  0
   -0.3600   12.6690   -0.6220 C   0  0  1  0  0  0  0  0  0  0  0  0
   -1.7660   12.2300   -0.6020 N   0  0  0  0  0  0  0  0  0  0  0  0
   -1.7700   10.7870   -0.4450 N   0  0  0  0  0  0  0  0  0  0  0  0
   -0.2400   14.0820   -0.0160 C   0  0  0  0  0  0  0  0  0  0  0  0
   -1.7120   10.4210   -1.3930 H   0  0  0  0  0  0  0  0  0  0  0  0
   -2.2610   12.5860    0.2130 H   0  0  0  0  0  0  0  0  0  0  0  0
    1.1640   11.1000   -0.7180 H   0  0  0  0  0  0  0  0  0  0  0  0
   -0.0450   12.7630   -1.6640 H   0  0  0  0  0  0  0  0  0  0  0  0
    1.0100   11.8020    0.9000 H   0  0  0  0  0  0  0  0  0  0  0  0
   -0.8710   10.5860    1.4250 H   0  0  0  0  0  0  0  0  0  0  0  0
   -1.2310   14.8910   -0.3630 O   0  0  0  0  0  0  0  0  0  0  0  0
    0.7130   14.4650    0.6310 O   0  0  0  0  0  0  0  0  0  0  0  0
   -1.1520   15.8100    0.0000 H   0  0  0  0  0  0  0  0  0  0  0  0
  1  5  1  0  0  0  0
  2  1  1  0  0  0  0
  3  2  2  0  0  0  0
  4  2  1  1  0  0  0
  4 10  5  0  0  0  0
  6  4  5  0  0  0  0
  6  7  5  0  0  0  0
  6 13  1  0  0  0  0
  7 12  1  1  0  0  0
  8  7  5  0  0  0  0
  8  9  5  1  0  0  0
  8 11  1  0  0  0  0
  9 15  1  0  0  0  0
 10  9  5  0  0  0  0
 10 14  1  6  0  0  0
 11 18  5  1  0  0  0
 11 22  5  0  0  0  0
 12 16  1  0  0  0  0
 12 17  1  0  0  0  0
 18 19  5  0  0  0  0
 18 25  1  0  0  0  0
 19 24  1  0  0  0  0
 20 19  5  1  0  0  0
 20 23  1  0  0  0  0
 21 20  5  0  0  0  0
 21 27  1  0  0  0  0
 22 21  5  0  0  0  0
 22 26  1  0  0  0  0
 23 31  1  0  0  0  0
 23 38  1  1  0  0  0
 28 23  1  0  0  0  0
 28 35  1  0  0  0  0
 28 37  1  0  0  0  0
 29 28  1  0  0  0  0
 29 36  1  6  0  0  0
 30 29  1  0  0  0  0
 31 30  1  0  0  0  0
 32 29  1  0  0  0  0
 32 40  2  0  0  0  0
 33 31  1  0  0  0  0
 34 30  1  0  0  0  0
 39 32  1  0  0  0  0
 41 39  1  0  0  0  0
M  END
