28

O          1.06200       -0.04700        0.01400
C         -0.08300        0.65900        0.07900
O         -1.12200        0.02900        0.20500
C          0.01400        2.17100       -0.02400
H          1.88400        0.46700       -0.05500
C         -1.15600        2.88700       -0.06700
C         -1.12100        4.23500       -0.14900
C          0.03400        4.90600       -0.18800
C          1.18600        4.22100       -0.14700
C          1.19400        2.86900       -0.06200
C          0.01500        6.33100       -0.19600
H         -2.04700        4.80900       -0.17000
Br        -2.93000        2.20700       -0.00300
Br         2.94600        2.13900        0.02700
H          2.12400        4.77800       -0.16500
C         -0.10300        7.51600       -0.03800
C         -0.30400        8.89600        0.38100
C          0.82800        9.82600        0.07200
N          0.06600       11.02100       -0.16300
N         -1.22400       10.74400       -0.51200
N         -1.42800        9.50400       -0.36400
C          0.55400       12.28800       -0.02600
H          1.54200        9.94300        0.89200
H          1.36500        9.58200       -0.85100
H         -0.55400        8.92600        1.44800
O         -0.36300       13.25700       -0.21400
O          1.70100       12.58700        0.27400
H          0.13600       14.08200       -0.04800
