
 OpenBabel11042013063D

 28 29  0  0  1  0  0  0  0  0999 V2000
    1.0620   -0.0470    0.0140 O   0  0  0  0  0  0  0  0  0  0  0  0
   -0.0830    0.6590    0.0790 C   0  0  0  0  0  0  0  0  0  0  0  0
   -1.1220    0.0290    0.2050 O   0  0  0  0  0  0  0  0  0  0  0  0
    0.0140    2.1710   -0.0240 C   0  0  1  0  0  0  0  0  0  0  0  0
    1.8840    0.4670   -0.0550 H   0  0  0  0  0  0  0  0  0  0  0  0
   -1.1560    2.8870   -0.0670 C   0  0  2  0  0  0  0  0  0  0  0  0
   -1.1210    4.2350   -0.1490 C   0  0  0  0  0  0  0  0  0  0  0  0
    0.0340    4.9060   -0.1880 C   0  0  2  0  0  0  0  0  0  0  0  0
    1.1860    4.2210   -0.1470 C   0  0  0  0  0  0  0  0  0  0  0  0
    1.1940    2.8690   -0.0620 C   0  0  1  0  0  0  0  0  0  0  0  0
    0.0150    6.3310   -0.1960 C   0  0  0  0  0  0  0  0  0  0  0  0
   -2.0470    4.8090   -0.1700 H   0  0  0  0  0  0  0  0  0  0  0  0
   -2.9300    2.2070   -0.0030 Br  0  0  0  0  0  0  0  0  0  0  0  0
    2.9460    2.1390    0.0270 Br  0  0  0  0  0  0  0  0  0  0  0  0
    2.1240    4.7780   -0.1650 H   0  0  0  0  0  0  0  0  0  0  0  0
   -0.1030    7.5160   -0.0380 C   0  0  0  0  0  0  0  0  0  0  0  0
   -0.3040    8.8960    0.3810 C   0  0  1  0  0  0  0  0  0  0  0  0
    0.8280    9.8260    0.0720 C   0  0  0  0  0  0  0  0  0  0  0  0
    0.0660   11.0210   -0.1630 N   0  0  0  0  0  0  0  0  0  0  0  0
   -1.2240   10.7440   -0.5120 N   0  0  0  0  0  0  0  0  0  0  0  0
   -1.4280    9.5040   -0.3640 N   0  0  0  0  0  0  0  0  0  0  0  0
    0.5540   12.2880   -0.0260 C   0  0  0  0  0  0  0  0  0  0  0  0
    1.5420    9.9430    0.8920 H   0  0  0  0  0  0  0  0  0  0  0  0
    1.3650    9.5820   -0.8510 H   0  0  0  0  0  0  0  0  0  0  0  0
   -0.5540    8.9260    1.4480 H   0  0  0  0  0  0  0  0  0  0  0  0
   -0.3630   13.2570   -0.2140 O   0  0  0  0  0  0  0  0  0  0  0  0
    1.7010   12.5870    0.2740 O   0  0  0  0  0  0  0  0  0  0  0  0
    0.1360   14.0820   -0.0480 H   0  0  0  0  0  0  0  0  0  0  0  0
  1  5  1  0  0  0  0
  2  1  1  0  0  0  0
  3  2  2  0  0  0  0
  4  2  1  1  0  0  0
  4 10  5  0  0  0  0
  6  4  5  0  0  0  0
  6  7  5  0  0  0  0
  6 13  1  1  0  0  0
  7 12  1  0  0  0  0
  8  7  5  0  0  0  0
  8 11  1  1  0  0  0
  9  8  5  0  0  0  0
  9 15  1  0  0  0  0
 10  9  5  0  0  0  0
 10 14  1  1  0  0  0
 16 11  3  0  0  0  0
 17 16  1  0  0  0  0
 17 21  1  0  0  0  0
 17 25  1  1  0  0  0
 18 17  1  0  0  0  0
 18 23  1  0  0  0  0
 18 24  1  0  0  0  0
 19 18  1  0  0  0  0
 20 19  1  0  0  0  0
 21 20  2  0  0  0  0
 22 19  1  0  0  0  0
 22 27  2  0  0  0  0
 26 22  1  0  0  0  0
 28 26  1  0  0  0  0
M  END
