36

O          0.09300        0.05200        0.49200
C         -0.96700        0.89500        0.53500
O         -2.11000        0.45800        0.59200
C         -0.64500        2.36000        0.36700
H          0.95500        0.51100        0.55700
C         -1.63500        3.18800       -0.04800
C         -1.28600        4.39000       -0.59600
C         -0.01300        4.81400       -0.57400
C          0.87900        4.11400        0.14600
C          0.61200        2.84100        0.49300
N          0.51200        5.70200       -1.48300
H         -2.04300        4.94800       -1.12700
O         -2.97600        2.84900       -0.10700
C          2.65000        2.11900       -0.33900
H          1.89200        4.49600        0.23500
N          0.20700        6.89300       -1.59400
C          0.36600        7.73900       -0.41700
H          3.08000        1.13700       -0.52500
H          2.16600        2.44100       -1.27300
H          3.43500        2.82900       -0.06400
O          1.69900        1.99900        0.75100
O          1.00600        9.01400       -0.64700
C         -1.06200        9.53100        0.26200
C         -1.03000        8.03700        0.10000
C          0.59900       11.42500       -0.06900
H         -1.81200        7.71800       -0.60100
H         -1.59300        9.96200       -0.59500
H         -1.57500        9.84500        1.17400
H         -1.21100        7.50500        1.03900
H          0.84600        9.77300        1.23500
C          0.39700        9.94000        0.24800
H          0.97000        7.24700        0.35900
H         -3.18800        2.07100        0.45600
O         -0.53600       12.15400        0.02600
O          1.65600       11.98200       -0.31600
H         -0.25900       13.07000       -0.18300
