
 OpenBabel11042013063D

 19 19  0  0  1  0  0  0  0  0999 V2000
    1.2680    0.7030    0.3880 O   0  0  0  0  0  0  0  0  0  0  0  0
    0.0410    1.1200    0.0010 C   0  0  0  0  0  0  0  0  0  0  0  0
   -0.7930    0.2770   -0.2710 O   0  0  0  0  0  0  0  0  0  0  0  0
   -0.0980    2.6120   -0.0320 C   0  0  2  0  0  0  0  0  0  0  0  0
    1.1730   -0.2770    0.3880 H   0  0  0  0  0  0  0  0  0  0  0  0
   -1.3190    3.2110    0.0400 C   0  0  2  0  0  0  0  0  0  0  0  0
   -1.4270    4.5710   -0.0030 C   0  0  1  0  0  0  0  0  0  0  0  0
   -0.3120    5.3430   -0.1010 C   0  0  2  0  0  0  0  0  0  0  0  0
    0.8870    4.7270   -0.1820 C   0  0  2  0  0  0  0  0  0  0  0  0
    1.0100    3.3870   -0.1580 C   0  0  1  0  0  0  0  0  0  0  0  0
   -0.2280    6.8360   -0.1300 C   0  0  0  0  0  0  0  0  0  0  0  0
   -3.0290    5.2900    0.0520 Cl  0  0  0  0  0  0  0  0  0  0  0  0
   -2.7780    2.2450    0.2200 Cl  0  0  0  0  0  0  0  0  0  0  0  0
    2.2990    2.8780   -0.2660 O   0  0  0  0  0  0  0  0  0  0  0  0
    2.0320    5.4460   -0.2870 F   0  0  0  0  0  0  0  0  0  0  0  0
    2.3430    1.9190   -0.0810 H   0  0  0  0  0  0  0  0  0  0  0  0
   -1.3640    7.4810    0.1720 O   0  0  0  0  0  0  0  0  0  0  0  0
    0.7590    7.5110   -0.3670 O   0  0  0  0  0  0  0  0  0  0  0  0
   -1.1190    8.4290    0.1030 H   0  0  0  0  0  0  0  0  0  0  0  0
  1  5  1  0  0  0  0
  2  1  1  0  0  0  0
  3  2  2  0  0  0  0
  4  2  1  6  0  0  0
  4 10  5  0  0  0  0
  6  4  5  0  0  0  0
  6  7  5  0  0  0  0
  6 13  1  1  0  0  0
  7 12  1  6  0  0  0
  8  7  5  0  0  0  0
  8 11  1  1  0  0  0
  9  8  5  0  0  0  0
  9 15  1  1  0  0  0
 10  9  5  0  0  0  0
 10 14  1  1  0  0  0
 11 18  2  0  0  0  0
 14 16  1  0  0  0  0
 17 11  1  0  0  0  0
 19 17  1  0  0  0  0
M  END
