
 OpenBabel11042013063D

 34 35  0  0  1  0  0  0  0  0999 V2000
    0.2810    0.0060    0.4960 O   0  0  0  0  0  0  0  0  0  0  0  0
   -0.7980    0.7740    0.2150 C   0  0  0  0  0  0  0  0  0  0  0  0
   -1.9020    0.2470    0.1210 O   0  0  0  0  0  0  0  0  0  0  0  0
   -0.5510    2.2610    0.0840 C   0  0  1  0  0  0  0  0  0  0  0  0
    1.0950    0.5310    0.6320 H   0  0  0  0  0  0  0  0  0  0  0  0
   -1.6080    3.0880   -0.1380 C   0  0  1  0  0  0  0  0  0  0  0  0
   -1.4240    4.4210   -0.2120 C   0  0  0  0  0  0  0  0  0  0  0  0
   -0.2020    4.9600   -0.0590 C   0  0  2  0  0  0  0  0  0  0  0  0
    0.8500    4.1480    0.1400 C   0  0  0  0  0  0  0  0  0  0  0  0
    0.6960    2.8040    0.1940 C   0  0  1  0  0  0  0  0  0  0  0  0
   -0.0660    6.3780   -0.0580 C   0  0  0  0  0  0  0  0  0  0  0  0
   -2.2750    5.0760   -0.3890 H   0  0  0  0  0  0  0  0  0  0  0  0
   -2.9450    2.6330   -0.3100 N   0  0  0  0  0  0  0  0  0  0  0  0
    2.8210    2.1610   -0.6030 C   0  0  0  0  0  0  0  0  0  0  0  0
    1.8380    4.5830    0.2780 H   0  0  0  0  0  0  0  0  0  0  0  0
   -0.0990    7.5710    0.0860 C   0  0  0  0  0  0  0  0  0  0  0  0
   -0.2980    8.9640    0.4680 C   0  0  1  0  0  0  0  0  0  0  0  0
    3.2980    1.1890   -0.7620 H   0  0  0  0  0  0  0  0  0  0  0  0
    2.4110    2.4960   -1.5620 H   0  0  0  0  0  0  0  0  0  0  0  0
    3.5750    2.8650   -0.2400 H   0  0  0  0  0  0  0  0  0  0  0  0
    1.8060    1.9860    0.3930 O   0  0  0  0  0  0  0  0  0  0  0  0
   -3.7100    3.2480   -0.0660 H   0  0  0  0  0  0  0  0  0  0  0  0
   -3.1240    1.6520   -0.0710 H   0  0  0  0  0  0  0  0  0  0  0  0
    0.8240    9.9110    0.1650 C   0  0  0  0  0  0  0  0  0  0  0  0
    0.0430   11.0870   -0.1160 N   0  0  0  0  0  0  0  0  0  0  0  0
   -1.2320   10.7740   -0.4890 N   0  0  0  0  0  0  0  0  0  0  0  0
   -1.4170    9.5370   -0.3130 N   0  0  0  0  0  0  0  0  0  0  0  0
    0.4770   12.3710    0.0460 C   0  0  0  0  0  0  0  0  0  0  0  0
    1.3910    9.6570   -0.7380 H   0  0  0  0  0  0  0  0  0  0  0  0
    1.5130   10.0640    1.0000 H   0  0  0  0  0  0  0  0  0  0  0  0
   -0.5690    9.0180    1.5300 H   0  0  0  0  0  0  0  0  0  0  0  0
   -0.4620   13.3060   -0.1990 O   0  0  0  0  0  0  0  0  0  0  0  0
    1.5920   12.7130    0.4120 O   0  0  0  0  0  0  0  0  0  0  0  0
   -0.0060   14.1510   -0.0100 H   0  0  0  0  0  0  0  0  0  0  0  0
  1  5  1  0  0  0  0
  2  1  1  0  0  0  0
  3  2  2  0  0  0  0
  4  2  1  1  0  0  0
  4 10  5  0  0  0  0
  6  4  5  0  0  0  0
  6  7  5  0  0  0  0
  6 13  1  6  0  0  0
  7 12  1  0  0  0  0
  8  7  5  0  0  0  0
  8 11  1  1  0  0  0
  9  8  5  0  0  0  0
  9 15  1  0  0  0  0
 10  9  5  0  0  0  0
 10 21  1  1  0  0  0
 13 22  1  0  0  0  0
 13 23  1  0  0  0  0
 14 18  1  0  0  0  0
 14 19  1  0  0  0  0
 14 20  1  0  0  0  0
 14 21  1  0  0  0  0
 16 11  3  0  0  0  0
 17 16  1  0  0  0  0
 17 27  1  0  0  0  0
 17 31  1  1  0  0  0
 24 17  1  0  0  0  0
 24 29  1  0  0  0  0
 24 30  1  0  0  0  0
 25 24  1  0  0  0  0
 26 25  1  0  0  0  0
 27 26  2  0  0  0  0
 28 25  1  0  0  0  0
 28 33  2  0  0  0  0
 32 28  1  0  0  0  0
 34 32  1  0  0  0  0
M  END
