34

O          0.28100        0.00600        0.49600
C         -0.79800        0.77400        0.21500
O         -1.90200        0.24700        0.12100
C         -0.55100        2.26100        0.08400
H          1.09500        0.53100        0.63200
C         -1.60800        3.08800       -0.13800
C         -1.42400        4.42100       -0.21200
C         -0.20200        4.96000       -0.05900
C          0.85000        4.14800        0.14000
C          0.69600        2.80400        0.19400
C         -0.06600        6.37800       -0.05800
H         -2.27500        5.07600       -0.38900
N         -2.94500        2.63300       -0.31000
C          2.82100        2.16100       -0.60300
H          1.83800        4.58300        0.27800
C         -0.09900        7.57100        0.08600
C         -0.29800        8.96400        0.46800
H          3.29800        1.18900       -0.76200
H          2.41100        2.49600       -1.56200
H          3.57500        2.86500       -0.24000
O          1.80600        1.98600        0.39300
H         -3.71000        3.24800       -0.06600
H         -3.12400        1.65200       -0.07100
C          0.82400        9.91100        0.16500
N          0.04300       11.08700       -0.11600
N         -1.23200       10.77400       -0.48900
N         -1.41700        9.53700       -0.31300
C          0.47700       12.37100        0.04600
H          1.39100        9.65700       -0.73800
H          1.51300       10.06400        1.00000
H         -0.56900        9.01800        1.53000
O         -0.46200       13.30600       -0.19900
O          1.59200       12.71300        0.41200
H         -0.00600       14.15100       -0.01000
