
 OpenBabel11042013063D

 35 36  0  0  1  0  0  0  0  0999 V2000
    1.3910   -0.1670    0.1310 O   0  0  0  0  0  0  0  0  0  0  0  0
    0.1960    0.3290   -0.2520 C   0  0  0  0  0  0  0  0  0  0  0  0
   -0.6420   -0.3940   -0.7750 O   0  0  0  0  0  0  0  0  0  0  0  0
   -0.0100    1.8010   -0.0390 C   0  0  2  0  0  0  0  0  0  0  0  0
    1.9910    0.4230    0.6090 H   0  0  0  0  0  0  0  0  0  0  0  0
   -1.2250    2.2880   -0.3700 C   0  0  0  0  0  0  0  0  0  0  0  0
   -1.5130    3.6100   -0.3060 C   0  0  1  0  0  0  0  0  0  0  0  0
   -0.5680    4.4930    0.1370 C   0  0  1  0  0  0  0  0  0  0  0  0
    0.6330    3.9750    0.5660 C   0  0  2  0  0  0  0  0  0  0  0  0
    0.9040    2.6570    0.4390 C   0  0  0  0  0  0  0  0  0  0  0  0
   -0.7320    5.9920    0.1510 C   0  0  1  0  0  0  0  0  0  0  0  0
   -3.2550    4.0800   -0.8860 Br  0  0  0  0  0  0  0  0  0  0  0  0
   -1.9880    1.5950   -0.7250 H   0  0  0  0  0  0  0  0  0  0  0  0
    1.8900    2.3290    0.7470 H   0  0  0  0  0  0  0  0  0  0  0  0
    2.8850    4.8260    0.6490 C   0  0  0  0  0  0  0  0  0  0  0  0
   -1.8100    6.6650    0.6170 C   0  0  0  0  0  0  0  0  0  0  0  0
   -1.8300    8.0150    0.6490 C   0  0  0  0  0  0  0  0  0  0  0  0
   -0.7420    8.7330    0.2950 C   0  0  2  0  0  0  0  0  0  0  0  0
    0.3600    8.0890   -0.1540 C   0  0  2  0  0  0  0  0  0  0  0  0
    0.3000    6.7530   -0.2880 C   0  0  0  0  0  0  0  0  0  0  0  0
   -0.7530   10.2190    0.4340 C   0  0  0  0  0  0  0  0  0  0  0  0
   -2.7260    8.5170    1.0100 H   0  0  0  0  0  0  0  0  0  0  0  0
   -2.6880    6.1420    0.9880 H   0  0  0  0  0  0  0  0  0  0  0  0
    1.1700    6.2580   -0.7150 H   0  0  0  0  0  0  0  0  0  0  0  0
    1.6770    8.7710   -0.4680 C   0  0  0  0  0  0  0  0  0  0  0  0
    1.5580    9.6010   -1.1650 H   0  0  0  0  0  0  0  0  0  0  0  0
    2.4020    8.0790   -0.9090 H   0  0  0  0  0  0  0  0  0  0  0  0
    2.1310    9.1320    0.4660 H   0  0  0  0  0  0  0  0  0  0  0  0
    3.3040    5.8150    0.8560 H   0  0  0  0  0  0  0  0  0  0  0  0
    2.8920    4.6750   -0.4360 H   0  0  0  0  0  0  0  0  0  0  0  0
    3.5080    4.0790    1.1460 H   0  0  0  0  0  0  0  0  0  0  0  0
    1.5670    4.8030    1.1920 O   0  0  0  0  0  0  0  0  0  0  0  0
   -1.9780   10.7520    0.2690 O   0  0  0  0  0  0  0  0  0  0  0  0
    0.2050   10.9430    0.6360 O   0  0  0  0  0  0  0  0  0  0  0  0
   -1.8090   11.7150    0.3450 H   0  0  0  0  0  0  0  0  0  0  0  0
  1  5  1  0  0  0  0
  2  1  1  0  0  0  0
  3  2  2  0  0  0  0
  4  2  1  6  0  0  0
  4 10  5  0  0  0  0
  6  4  5  0  0  0  0
  6  7  5  0  0  0  0
  6 13  1  0  0  0  0
  7 12  1  6  0  0  0
  8  7  5  0  0  0  0
  8 11  1  6  0  0  0
  9  8  5  0  0  0  0
  9 32  1  1  0  0  0
 10  9  5  0  0  0  0
 10 14  1  0  0  0  0
 11 16  5  1  0  0  0
 11 20  5  0  0  0  0
 15 29  1  0  0  0  0
 15 30  1  0  0  0  0
 15 31  1  0  0  0  0
 15 32  1  0  0  0  0
 16 17  5  0  0  0  0
 16 23  1  0  0  0  0
 17 22  1  0  0  0  0
 18 17  5  0  0  0  0
 18 21  1  1  0  0  0
 19 18  5  0  0  0  0
 19 25  1  1  0  0  0
 20 19  5  0  0  0  0
 20 24  1  0  0  0  0
 21 34  2  0  0  0  0
 25 26  1  0  0  0  0
 25 27  1  0  0  0  0
 25 28  1  0  0  0  0
 33 21  1  0  0  0  0
 35 33  1  0  0  0  0
M  END
