36

O          2.02800       -0.53200        0.28500
C          0.89000        0.04000       -0.14500
O         -0.02300       -0.63900       -0.60000
C          0.77400        1.52200       -0.00200
H          2.73400        0.01400        0.67600
C         -0.47500        1.96000        0.29000
C         -0.77400        3.27400        0.37100
C          0.21100        4.18900        0.14700
C          1.46300        3.74300       -0.11800
C          1.76300        2.42600       -0.18900
N         -0.08500        5.52700        0.07600
C         -2.84500        4.41100       -0.12200
H         -1.28000        1.24300        0.45600
C          3.10900        2.05300       -0.48100
H          2.24500        4.48200       -0.29700
N          0.64000        6.37800        0.63100
C          0.40600        7.69700       -0.00000
O          1.02300        8.87100        0.56000
C         -1.09200        9.56900       -0.14600
C         -1.07700        8.05800       -0.07000
C          0.62800       11.36800        0.41400
H         -1.62200        7.72300        0.82000
H         -1.63900        9.97700        0.71200
H         -1.58700        9.93300       -1.05200
H         -1.55900        7.60100       -0.94100
H          0.77300        9.96700       -1.14500
C          0.37900        9.95800       -0.11900
H          0.80700        7.61900       -1.02100
H         -3.21100        3.81900       -0.96500
H         -2.32600        5.29400       -0.49500
H         -3.70900        4.76900        0.44800
O         -2.06900        3.60100        0.75400
N          4.20300        1.68500       -0.61800
O         -0.35500       12.23400        0.08000
O          1.62400       11.77400        0.98900
H         -0.04200       13.09500        0.43000
