
 OpenBabel02032115563D

 36 37  0  0  1  0  0  0  0  0999 V2000
    2.6470    1.4010    0.0140 O   0  0  0  0  0  0  0  0  0  0  0  0
    1.4500    1.9310    0.0260 C   0  0  0  0  0  0  0  0  0  0  0  0
    0.5680    1.0990   -0.0410 O   0  0  0  0  0  0  0  0  0  0  0  0
    1.1080    3.3360    0.1530 C   0  0  1  0  0  0  0  0  0  0  0  0
    2.5030    0.4170    0.0000 H   0  0  0  0  0  0  0  0  0  0  0  0
   -0.1480    3.7840    0.3090 C   0  0  1  0  0  0  0  0  0  0  0  0
   -0.4490    5.0800    0.4810 C   0  0  2  0  0  0  0  0  0  0  0  0
    0.5070    6.0220    0.3600 C   0  0  1  0  0  0  0  0  0  0  0  0
    1.7840    5.5940    0.2020 C   0  0  2  0  0  0  0  0  0  0  0  0
    2.0580    4.2750    0.1320 C   0  0  0  0  0  0  0  0  0  0  0  0
    0.0280    7.5070    0.3740 C   0  0  1  0  0  0  0  0  0  0  0  0
   -1.9030    5.4150    0.8950 C   0  0  0  0  0  0  0  0  0  0  0  0
   -1.2140    3.0120    0.2230 O   0  0  0  0  0  0  0  0  0  0  0  0
    3.0940    3.9590    0.0220 H   0  0  0  0  0  0  0  0  0  0  0  0
    2.9770    6.5360    0.1610 C   0  0  0  0  0  0  0  0  0  0  0  0
   -2.2830    4.6930    1.6230 H   0  0  0  0  0  0  0  0  0  0  0  0
   -2.0130    6.3680    1.4100 H   0  0  0  0  0  0  0  0  0  0  0  0
   -2.5760    5.3920    0.0350 H   0  0  0  0  0  0  0  0  0  0  0  0
    1.0000    8.5550    0.1160 O   0  0  0  0  0  0  0  0  0  0  0  0
   -1.0990    9.3440   -0.6870 C   0  0  0  0  0  0  0  0  0  0  0  0
   -1.0090    7.8320   -0.7330 C   0  0  0  0  0  0  0  0  0  0  0  0
    0.4830   10.9670    0.5190 C   0  0  0  0  0  0  0  0  0  0  0  0
   -2.0080    7.4310   -0.5780 H   0  0  0  0  0  0  0  0  0  0  0  0
   -1.7600    9.6250    0.1380 H   0  0  0  0  0  0  0  0  0  0  0  0
   -1.4870    9.7640   -1.6180 H   0  0  0  0  0  0  0  0  0  0  0  0
   -0.6470    7.4960   -1.7080 H   0  0  0  0  0  0  0  0  0  0  0  0
    0.8410   10.0230   -1.3500 H   0  0  0  0  0  0  0  0  0  0  0  0
    0.3520    9.7620   -0.4070 C   0  0  1  0  0  0  0  0  0  0  0  0
   -0.3980    7.7370    1.3550 H   0  0  0  0  0  0  0  0  0  0  0  0
   -1.8420    3.7270    0.0000 H   0  0  0  0  0  0  0  0  0  0  0  0
    2.9300    7.2640    0.9750 H   0  0  0  0  0  0  0  0  0  0  0  0
    3.0200    7.0670   -0.7920 H   0  0  0  0  0  0  0  0  0  0  0  0
    3.9220    6.0020    0.2860 H   0  0  0  0  0  0  0  0  0  0  0  0
   -0.5220   11.8160    0.5030 O   0  0  0  0  0  0  0  0  0  0  0  0
    1.5100   11.2140    1.1160 O   0  0  0  0  0  0  0  0  0  0  0  0
   -1.2750   11.4470    0.0000 H   0  0  0  0  0  0  0  0  0  0  0  0
  1  5  1  0  0  0  0
  2  1  1  0  0  0  0
  3  2  2  0  0  0  0
  4  2  1  1  0  0  0
  4 10  5  0  0  0  0
  6  4  5  0  0  0  0
  6  7  5  0  0  0  0
  6 13  1  6  0  0  0
  7 12  1  1  0  0  0
  8  7  5  0  0  0  0
  8 11  1  6  0  0  0
  9  8  5  0  0  0  0
  9 15  1  1  0  0  0
 10  9  5  0  0  0  0
 10 14  1  0  0  0  0
 11 21  1  0  0  0  0
 11 29  1  1  0  0  0
 12 16  1  0  0  0  0
 12 17  1  0  0  0  0
 12 18  1  0  0  0  0
 13 30  1  0  0  0  0
 15 31  1  0  0  0  0
 15 32  1  0  0  0  0
 15 33  1  0  0  0  0
 19 11  1  0  0  0  0
 20 28  1  0  0  0  0
 20 25  1  0  0  0  0
 21 20  1  0  0  0  0
 21 26  1  0  0  0  0
 22 28  1  0  0  0  0
 22 35  2  0  0  0  0
 23 21  1  0  0  0  0
 24 20  1  0  0  0  0
 28 19  1  0  0  0  0
 28 27  1  6  0  0  0
 34 22  1  0  0  0  0
 36 34  1  0  0  0  0
M  END
