
 OpenBabel11042013063D

 35 36  0  0  1  0  0  0  0  0999 V2000
    1.5170   -0.1060   -0.2840 O   0  0  0  0  0  0  0  0  0  0  0  0
    0.5710    0.5520    0.4210 C   0  0  0  0  0  0  0  0  0  0  0  0
   -0.1040    0.0070    1.2800 O   0  0  0  0  0  0  0  0  0  0  0  0
    0.4600    1.9980    0.0700 C   0  0  1  0  0  0  0  0  0  0  0  0
    1.9280    0.4350   -0.9810 H   0  0  0  0  0  0  0  0  0  0  0  0
   -0.7660    2.4270   -0.3120 C   0  0  2  0  0  0  0  0  0  0  0  0
   -0.9610    3.7480   -0.5420 C   0  0  1  0  0  0  0  0  0  0  0  0
    0.0290    4.6640   -0.3570 C   0  0  1  0  0  0  0  0  0  0  0  0
    1.2520    4.1850   -0.0220 C   0  0  0  0  0  0  0  0  0  0  0  0
    1.4970    2.8680    0.1770 C   0  0  1  0  0  0  0  0  0  0  0  0
   -0.2470    6.1680   -0.5280 C   0  0  2  0  0  0  0  0  0  0  0  0
   -2.2580    4.1790   -1.0060 N   0  0  0  0  0  0  0  0  0  0  0  0
   -1.8150    1.5330   -0.4600 O   0  0  0  0  0  0  0  0  0  0  0  0
    2.8910    2.4210    0.5600 C   0  0  0  0  0  0  0  0  0  0  0  0
    2.0760    4.8940    0.0910 H   0  0  0  0  0  0  0  0  0  0  0  0
    0.8920    7.0250   -0.2450 O   0  0  0  0  0  0  0  0  0  0  0  0
   -1.0940    8.1520    0.4220 C   0  0  0  0  0  0  0  0  0  0  0  0
   -1.3360    6.6740    0.4160 C   0  0  0  0  0  0  0  0  0  0  0  0
    0.9410    9.5510   -0.1940 C   0  0  0  0  0  0  0  0  0  0  0  0
   -2.3530    6.4520    0.0890 H   0  0  0  0  0  0  0  0  0  0  0  0
   -1.5260    8.6560    1.2920 H   0  0  0  0  0  0  0  0  0  0  0  0
   -1.5450    8.5880   -0.4770 H   0  0  0  0  0  0  0  0  0  0  0  0
   -1.1990    6.2700    1.4270 H   0  0  0  0  0  0  0  0  0  0  0  0
    0.7940    8.1990    1.4270 H   0  0  0  0  0  0  0  0  0  0  0  0
    0.4200    8.2310    0.3990 C   0  0  2  0  0  0  0  0  0  0  0  0
   -0.5110    6.3680   -1.5750 H   0  0  0  0  0  0  0  0  0  0  0  0
    3.3970    1.9790   -0.3070 H   0  0  0  0  0  0  0  0  0  0  0  0
    3.5100    3.2560    0.9030 H   0  0  0  0  0  0  0  0  0  0  0  0
    2.8760    1.6850    1.3700 H   0  0  0  0  0  0  0  0  0  0  0  0
   -2.6710    1.9400   -0.2430 H   0  0  0  0  0  0  0  0  0  0  0  0
   -2.6910    3.4530   -1.5770 H   0  0  0  0  0  0  0  0  0  0  0  0
   -2.8890    4.2680   -0.2070 H   0  0  0  0  0  0  0  0  0  0  0  0
   -0.0290   10.4600   -0.4640 O   0  0  0  0  0  0  0  0  0  0  0  0
    2.1080    9.8550   -0.3850 O   0  0  0  0  0  0  0  0  0  0  0  0
    0.4510   11.2370   -0.8170 H   0  0  0  0  0  0  0  0  0  0  0  0
  1  5  1  0  0  0  0
  2  1  1  0  0  0  0
  3  2  2  0  0  0  0
  4  2  1  1  0  0  0
  4 10  5  0  0  0  0
  6  4  5  0  0  0  0
  6  7  5  0  0  0  0
  6 13  1  1  0  0  0
  7 12  1  6  0  0  0
  8  7  5  0  0  0  0
  8  9  5  6  0  0  0
  8 11  1  0  0  0  0
  9 15  1  0  0  0  0
 10  9  5  0  0  0  0
 10 14  1  1  0  0  0
 11 18  1  0  0  0  0
 11 26  1  6  0  0  0
 12 31  1  0  0  0  0
 12 32  1  0  0  0  0
 13 30  1  0  0  0  0
 14 27  1  0  0  0  0
 14 28  1  0  0  0  0
 14 29  1  0  0  0  0
 16 11  1  0  0  0  0
 17 25  1  0  0  0  0
 17 22  1  0  0  0  0
 18 17  1  0  0  0  0
 18 23  1  0  0  0  0
 19 25  1  0  0  0  0
 19 34  2  0  0  0  0
 20 18  1  0  0  0  0
 21 17  1  0  0  0  0
 25 16  1  0  0  0  0
 25 24  1  1  0  0  0
 33 19  1  0  0  0  0
 35 33  1  0  0  0  0
M  END
