
 OpenBabel11042013063D

 43 45  0  0  1  0  0  0  0  0999 V2000
    1.6340   -0.2460   -0.1410 O   0  0  0  0  0  0  0  0  0  0  0  0
    0.5560    0.3610    0.3930 C   0  0  0  0  0  0  0  0  0  0  0  0
   -0.2710   -0.2560    1.0470 O   0  0  0  0  0  0  0  0  0  0  0  0
    0.5340    1.8470    0.1980 C   0  0  1  0  0  0  0  0  0  0  0  0
    2.1670    0.3250   -0.7200 H   0  0  0  0  0  0  0  0  0  0  0  0
   -0.6420    2.4680   -0.0650 C   0  0  2  0  0  0  0  0  0  0  0  0
   -0.6550    3.8210   -0.0190 C   0  0  0  0  0  0  0  0  0  0  0  0
    0.4410    4.5600    0.2880 C   0  0  2  0  0  0  0  0  0  0  0  0
    1.6180    3.9100    0.4280 C   0  0  0  0  0  0  0  0  0  0  0  0
    1.6630    2.5620    0.3930 C   0  0  0  0  0  0  0  0  0  0  0  0
    0.3120    6.0350    0.6550 C   0  0  1  0  0  0  0  0  0  0  0  0
   -1.5990    4.3370   -0.1620 H   0  0  0  0  0  0  0  0  0  0  0  0
   -3.0400    2.3380   -0.4010 C   0  0  0  0  0  0  0  0  0  0  0  0
    2.6100    2.0730    0.6080 H   0  0  0  0  0  0  0  0  0  0  0  0
    2.5290    4.4580    0.6590 H   0  0  0  0  0  0  0  0  0  0  0  0
   -3.2430    2.9680    0.4720 H   0  0  0  0  0  0  0  0  0  0  0  0
   -3.8100    1.5630   -0.4340 H   0  0  0  0  0  0  0  0  0  0  0  0
   -3.1020    2.9190   -1.3270 H   0  0  0  0  0  0  0  0  0  0  0  0
   -1.7720    1.6980   -0.3040 O   0  0  0  0  0  0  0  0  0  0  0  0
    1.1410    7.1290    0.0100 C   0  0  0  0  0  0  0  0  0  0  0  0
    0.2240    8.2470    0.2050 N   0  0  0  0  0  0  0  0  0  0  0  0
   -1.0670    7.7730    0.2350 N   0  0  0  0  0  0  0  0  0  0  0  0
   -1.0660    6.5410    0.4450 N   0  0  0  0  0  0  0  0  0  0  0  0
    0.4150    9.5250   -0.4360 C   0  0  2  0  0  0  0  0  0  0  0  0
    1.3010    6.9750   -1.0620 H   0  0  0  0  0  0  0  0  0  0  0  0
    2.0870    7.3190    0.5230 H   0  0  0  0  0  0  0  0  0  0  0  0
    0.4780    6.0830    1.7410 H   0  0  0  0  0  0  0  0  0  0  0  0
    1.5630   10.4050    0.0240 C   0  0  0  0  0  0  0  0  0  0  0  0
    1.1200   11.7520   -0.5500 C   0  0  1  0  0  0  0  0  0  0  0  0
   -0.3600   11.6910   -0.5980 N   0  0  0  0  0  0  0  0  0  0  0  0
   -0.7060   10.3960   -0.0840 N   0  0  0  0  0  0  0  0  0  0  0  0
    1.6820   12.9130    0.1690 N   0  0  0  0  0  0  0  0  0  0  0  0
   -1.5660   10.0050   -0.4730 H   0  0  0  0  0  0  0  0  0  0  0  0
   -0.6940   12.4250    0.0380 H   0  0  0  0  0  0  0  0  0  0  0  0
    2.5270   10.0780   -0.3800 H   0  0  0  0  0  0  0  0  0  0  0  0
    1.4680   11.8200   -1.5880 H   0  0  0  0  0  0  0  0  0  0  0  0
    1.6470   10.4350    1.1190 H   0  0  0  0  0  0  0  0  0  0  0  0
    0.4470    9.3570   -1.5210 H   0  0  0  0  0  0  0  0  0  0  0  0
    0.7980   13.7640    0.4310 N   0  0  0  0  0  0  0  0  0  0  0  0
    1.2590   15.0390    0.5320 C   0  0  0  0  0  0  0  0  0  0  0  0
    0.2290   15.9170    0.4360 O   0  0  0  0  0  0  0  0  0  0  0  0
    2.4080   15.4590    0.6260 O   0  0  0  0  0  0  0  0  0  0  0  0
    0.6770   16.7840    0.4130 H   0  0  0  0  0  0  0  0  0  0  0  0
  1  5  1  0  0  0  0
  2  1  1  0  0  0  0
  3  2  2  0  0  0  0
  4  2  1  1  0  0  0
  4 10  5  0  0  0  0
  6  4  5  0  0  0  0
  6  7  5  0  0  0  0
  6 19  1  1  0  0  0
  7 12  1  0  0  0  0
  8  7  5  1  0  0  0
  8 11  1  0  0  0  0
  9  8  5  0  0  0  0
  9 15  1  0  0  0  0
 10  9  5  0  0  0  0
 10 14  1  0  0  0  0
 11 23  1  0  0  0  0
 11 27  1  1  0  0  0
 13 16  1  0  0  0  0
 13 17  1  0  0  0  0
 13 18  1  0  0  0  0
 13 19  1  0  0  0  0
 20 11  1  0  0  0  0
 20 25  1  0  0  0  0
 20 26  1  0  0  0  0
 21 20  1  0  0  0  0
 22 21  1  0  0  0  0
 23 22  2  0  0  0  0
 24 21  1  0  0  0  0
 24 31  1  0  0  0  0
 24 38  1  6  0  0  0
 28 24  1  0  0  0  0
 28 35  1  0  0  0  0
 28 37  1  0  0  0  0
 29 28  1  0  0  0  0
 29 36  1  6  0  0  0
 30 29  1  0  0  0  0
 31 30  1  0  0  0  0
 32 29  1  0  0  0  0
 33 31  1  0  0  0  0
 34 30  1  0  0  0  0
 39 32  2  0  0  0  0
 40 39  1  0  0  0  0
 40 42  2  0  0  0  0
 41 40  1  0  0  0  0
 43 41  1  0  0  0  0
M  END
