
 OpenBabel11042013063D

 39 40  0  0  1  0  0  0  0  0999 V2000
    0.1610   -0.1350    0.5200 O   0  0  0  0  0  0  0  0  0  0  0  0
   -0.8880    0.6380    0.1650 C   0  0  0  0  0  0  0  0  0  0  0  0
   -1.9500    0.1400   -0.1850 O   0  0  0  0  0  0  0  0  0  0  0  0
   -0.6510    2.1170    0.2200 C   0  0  2  0  0  0  0  0  0  0  0  0
    0.9430    0.3910    0.7910 H   0  0  0  0  0  0  0  0  0  0  0  0
   -1.7160    2.9080   -0.0550 C   0  0  0  0  0  0  0  0  0  0  0  0
   -1.5810    4.2480   -0.1150 C   0  0  0  0  0  0  0  0  0  0  0  0
   -0.3810    4.8140    0.1260 C   0  0  1  0  0  0  0  0  0  0  0  0
    0.6650    4.0320    0.4510 C   0  0  0  0  0  0  0  0  0  0  0  0
    0.5560    2.6860    0.4630 C   0  0  2  0  0  0  0  0  0  0  0  0
   -0.1140    6.2050   -0.1360 C   0  0  0  0  0  0  0  0  0  0  0  0
   -2.4350    4.8560   -0.4070 H   0  0  0  0  0  0  0  0  0  0  0  0
   -2.6860    2.4680   -0.2860 H   0  0  0  0  0  0  0  0  0  0  0  0
    2.6810    2.1930   -0.3650 C   0  0  0  0  0  0  0  0  0  0  0  0
    1.6300    4.4900    0.6490 H   0  0  0  0  0  0  0  0  0  0  0  0
   -0.4790    7.3100    0.5420 C   0  0  0  0  0  0  0  0  0  0  0  0
   -0.1180    8.6350   -0.0520 C   0  0  2  0  0  0  0  0  0  0  0  0
   -1.0600    7.2680    1.4550 H   0  0  0  0  0  0  0  0  0  0  0  0
    0.4850    6.3290   -1.0350 H   0  0  0  0  0  0  0  0  0  0  0  0
    0.6280    9.4970    0.8190 O   0  0  0  0  0  0  0  0  0  0  0  0
   -0.7830   10.8800   -0.4430 C   0  0  0  0  0  0  0  0  0  0  0  0
   -1.3140    9.4610   -0.4840 C   0  0  0  0  0  0  0  0  0  0  0  0
    1.2360   11.9590    0.6330 N   0  0  0  0  0  0  0  0  0  0  0  0
   -2.1520    9.3590    0.2160 H   0  0  0  0  0  0  0  0  0  0  0  0
   -0.8190   11.3800   -1.4160 H   0  0  0  0  0  0  0  0  0  0  0  0
   -1.4130   11.4520    0.2460 H   0  0  0  0  0  0  0  0  0  0  0  0
   -1.6710    9.1730   -1.4780 H   0  0  0  0  0  0  0  0  0  0  0  0
    1.2990   10.5210   -0.8090 H   0  0  0  0  0  0  0  0  0  0  0  0
    0.6580   10.7290    0.0600 C   0  0  1  0  0  0  0  0  0  0  0  0
    0.5210    8.4670   -0.9330 H   0  0  0  0  0  0  0  0  0  0  0  0
    0.3890   12.8150    0.9600 N   0  0  0  0  0  0  0  0  0  0  0  0
    0.7500   14.0750    0.5660 C   0  0  0  0  0  0  0  0  0  0  0  0
    3.1180    1.2460   -0.6880 H   0  0  0  0  0  0  0  0  0  0  0  0
    2.2600    2.6830   -1.2520 H   0  0  0  0  0  0  0  0  0  0  0  0
    3.4620    2.8210    0.0710 H   0  0  0  0  0  0  0  0  0  0  0  0
    1.6900    1.9010    0.6370 O   0  0  0  0  0  0  0  0  0  0  0  0
   -0.3510   14.8360    0.3750 O   0  0  0  0  0  0  0  0  0  0  0  0
    1.8510   14.5290    0.2910 O   0  0  0  0  0  0  0  0  0  0  0  0
    0.0180   15.6620    0.0070 H   0  0  0  0  0  0  0  0  0  0  0  0
  1  5  1  0  0  0  0
  2  1  1  0  0  0  0
  3  2  2  0  0  0  0
  4  2  1  6  0  0  0
  4 10  5  0  0  0  0
  6  4  5  0  0  0  0
  6  7  5  0  0  0  0
  6 13  1  0  0  0  0
  7 12  1  0  0  0  0
  8  7  5  0  0  0  0
  8 11  1  6  0  0  0
  9  8  5  0  0  0  0
  9 15  1  0  0  0  0
 10  9  5  0  0  0  0
 10 36  1  6  0  0  0
 11 19  1  0  0  0  0
 14 33  1  0  0  0  0
 14 34  1  0  0  0  0
 14 35  1  0  0  0  0
 14 36  1  0  0  0  0
 16 11  2  0  0  0  0
 16 18  1  0  0  0  0
 17 16  1  0  0  0  0
 17 22  1  0  0  0  0
 17 30  1  6  0  0  0
 20 17  1  0  0  0  0
 21 29  1  0  0  0  0
 21 26  1  0  0  0  0
 22 21  1  0  0  0  0
 22 27  1  0  0  0  0
 23 29  1  0  0  0  0
 24 22  1  0  0  0  0
 25 21  1  0  0  0  0
 29 20  1  0  0  0  0
 29 28  1  6  0  0  0
 31 23  2  0  0  0  0
 32 31  1  0  0  0  0
 32 38  2  0  0  0  0
 37 32  1  0  0  0  0
 39 37  1  0  0  0  0
M  END
