47

O          1.54800       -1.17300        0.13800
C          0.29100       -0.76600       -0.16900
O         -0.59700       -1.56500       -0.42800
C          0.09800        0.70900       -0.14600
H          2.12700       -0.47700        0.49500
C         -1.15700        1.17600        0.03500
C         -1.40100        2.49500        0.06200
C         -0.38300        3.36900       -0.10400
C          0.86700        2.89700       -0.30600
C          1.10800        1.57900       -0.33200
C         -0.58700        4.85300       -0.07800
H         -2.41700        2.85000        0.20600
H         -1.99300        0.48700        0.16100
H          2.13000        1.27000       -0.52100
H          1.70500        3.56700       -0.46300
C          0.51000        5.58900        0.63000
N         -0.20800        6.80600        0.86100
N         -1.55500        6.52300        1.02800
N         -1.77200        5.33300        0.66900
C          0.15000        7.90800        0.11000
H          1.40300        5.71400        0.01300
H          0.77600        5.16700        1.60700
H         -0.69800        5.20800       -1.11600
C         -0.76100        8.50300       -0.68900
C         -0.49500        9.68600       -1.25500
C          0.64900       10.31600       -0.90600
C          1.65500        9.62900       -0.32700
C          1.41300        8.40900        0.18100
C          0.57500       11.75400       -0.65800
H         -1.30400       10.20200       -1.76900
H         -1.75800        8.09100       -0.81800
O          2.41100        7.76500        0.90100
H          2.60000       10.11500       -0.10400
H          3.25500        8.24500        0.87600
C         -0.53800       12.15400        0.01200
C         -0.69700       13.41000        0.43200
C          0.28700       14.29100        0.20300
C          1.43800       13.90900       -0.38900
C          1.58000       12.64000       -0.82900
C          0.07700       15.69300        0.59000
H         -1.61200       13.67500        0.95400
H         -1.33800       11.45300        0.26000
H          2.51700       12.33600       -1.28900
H          2.25100       14.61800       -0.51500
O         -1.20200       16.07000        0.36200
O          0.91900       16.48300        0.97200
H         -1.20700       17.03200        0.52800
