52

O          1.23100        3.19200       -0.16500
C          0.15400        4.00000       -0.24500
O         -0.97100        3.52100       -0.32000
C          0.42600        5.48800       -0.21000
H          2.09400        3.62000       -0.07600
C         -0.68000        6.25900       -0.21100
C         -0.59300        7.60000       -0.13700
C          0.59200        8.27500       -0.05000
C          1.69700        7.48300       -0.08700
C          1.62000        6.12500       -0.16300
C          0.58800        9.83800        0.20100
H         -1.54400        8.12300       -0.11300
H         -1.67200        5.80300       -0.25000
H          2.54800        5.56400       -0.16400
H          2.68400        7.93300       -0.01500
C          1.62700       10.97400       -0.19100
C          0.87600       12.24300        0.33300
N         -0.53100       11.92100       -0.06700
N         -0.64200       10.49100       -0.29800
C          1.07300       13.86000        0.30000
H         -1.45000       10.12500        0.21000
H         -0.71400       12.42300       -0.94700
H          2.57900       10.81800        0.32700
H          0.89000       12.06800        1.42200
H          1.79500       10.99800       -1.27400
H          0.53900        9.86800        1.30300
C          2.18900       14.87400       -0.10700
C          1.48100       16.25500        0.27000
N          0.07900       15.97900       -0.15100
N         -0.08600       14.54200       -0.33700
C          1.88200       17.77700        0.02800
H         -0.94000       14.20900        0.13100
H         -0.08500       16.45700       -1.04300
H          2.42000       14.83400       -1.17800
H          1.46400       16.23600        1.37300
H          3.10500       14.73600        0.47500
H          0.95600       14.06800        1.37800
C          0.90800       18.73800        0.02700
C          1.16600       20.06600       -0.06600
C          2.43100       20.51900       -0.15800
C          3.41300       19.59200       -0.18400
C          3.14800       18.25800       -0.09900
C          2.70800       21.94200       -0.19300
H          0.33300       20.76600       -0.03600
H         -0.13700       18.45900        0.14500
H          3.99300       17.57500       -0.09100
H          4.44500       19.93100       -0.25100
C          2.91800       23.13100       -0.18200
C          3.21700       24.53800       -0.14800
O          2.13600       25.35400       -0.13000
O          4.35000       24.99400       -0.11500
H          2.51900       26.25600       -0.09400
