31

O          1.66600        0.60000        0.04800
C          0.41200        1.03800       -0.22500
O         -0.47300        0.23800       -0.49200
C          0.25200        2.54300       -0.28500
H          2.32000        1.30600        0.22900
C         -0.92500        3.15500       -0.58200
C         -0.92000        4.50300       -0.74100
C          0.20600        5.24100       -0.65500
C          1.36500        4.64700       -0.28900
C          1.27300        3.34800        0.08500
C          0.09800        6.66300       -0.69300
H         -1.84700        5.04200       -0.91400
C         -2.22800        2.38000       -0.49600
N          1.72700        3.11700        1.45500
C          2.67900        5.40100       -0.15600
H          2.58400        6.32900        0.41300
H          3.46600        4.80200        0.32000
H          3.06100        5.64600       -1.15800
C         -3.46200        3.21700       -0.17300
H         -3.69500        3.90800       -0.98700
H         -3.31100        3.79400        0.74800
H         -4.32600        2.56700       -0.02200
H         -2.15000        1.68300        0.35000
H         -2.38800        1.79800       -1.40800
C         -0.01600        7.84400       -0.47400
C         -0.15600        9.21500       -0.07400
H          1.15700        2.39500        1.91700
H          1.42000        3.96100        1.97300
O         -1.42500        9.66100       -0.06800
O          0.78200        9.91400        0.27000
H         -1.34400       10.58800        0.23700
