20

O          0.95200        0.27500        0.72700
C          0.06300        0.81900       -0.13400
O         -0.66400        0.13200       -0.83300
C          0.00100        2.30600       -0.08500
H          1.61700        0.89700        1.08000
C         -1.19700        2.89900        0.13400
C         -1.30300        4.24900        0.17900
C         -0.19200        5.00800        0.02200
C          1.01300        4.42000       -0.19400
C          1.10900        3.06800       -0.26800
C         -0.22100        6.49900        0.09800
O         -2.54300        4.83600        0.40600
Cl        -2.66400        1.97600        0.40500
Br         2.81300        2.29400       -0.63400
O          2.18200        5.17100       -0.34300
H         -3.27300        4.19100        0.36000
H          2.06800        6.12500       -0.14400
O         -1.39700        7.08300       -0.16700
O          0.76300        7.19200        0.32200
H         -1.23800        8.04200       -0.05300
