
 OpenBabel11042013063D

 41 43  0  0  1  0  0  0  0  0999 V2000
    1.0750   -0.4350    0.2740 O   0  0  0  0  0  0  0  0  0  0  0  0
   -0.0970    0.2240    0.3820 C   0  0  0  0  0  0  0  0  0  0  0  0
   -1.1470   -0.3890    0.5270 O   0  0  0  0  0  0  0  0  0  0  0  0
   -0.0220    1.7190    0.2570 C   0  0  2  0  0  0  0  0  0  0  0  0
    1.8720    0.1000    0.1410 H   0  0  0  0  0  0  0  0  0  0  0  0
   -1.2040    2.3670    0.2520 C   0  0  0  0  0  0  0  0  0  0  0  0
   -1.2880    3.7090    0.0820 C   0  0  1  0  0  0  0  0  0  0  0  0
   -0.1490    4.4500   -0.1040 C   0  0  1  0  0  0  0  0  0  0  0  0
    1.0360    3.7860   -0.0800 C   0  0  1  0  0  0  0  0  0  0  0  0
    1.0960    2.4540    0.1130 C   0  0  0  0  0  0  0  0  0  0  0  0
   -0.1950    5.9620   -0.3980 C   0  0  2  0  0  0  0  0  0  0  0  0
   -2.7030    4.2690    0.0310 C   0  0  0  0  0  0  0  0  0  0  0  0
   -2.1220    1.7870    0.3680 H   0  0  0  0  0  0  0  0  0  0  0  0
    2.0840    2.0100    0.1070 H   0  0  0  0  0  0  0  0  0  0  0  0
    2.2360    4.4330   -0.3110 O   0  0  0  0  0  0  0  0  0  0  0  0
   -3.4640    3.4840   -0.0580 H   0  0  0  0  0  0  0  0  0  0  0  0
   -2.9360    4.8220    0.9480 H   0  0  0  0  0  0  0  0  0  0  0  0
   -2.8420    4.9100   -0.8460 H   0  0  0  0  0  0  0  0  0  0  0  0
    0.8910    6.9780   -0.0060 C   0  0  0  0  0  0  0  0  0  0  0  0
    0.0780    8.1960   -0.1010 N   0  0  0  0  0  0  0  0  0  0  0  0
   -1.2140    7.8570    0.2640 N   0  0  0  0  0  0  0  0  0  0  0  0
   -1.3670    6.6200    0.2140 N   0  0  0  0  0  0  0  0  0  0  0  0
    0.4650    9.5040    0.3870 C   0  0  1  0  0  0  0  0  0  0  0  0
    1.7310    7.0290   -0.7010 H   0  0  0  0  0  0  0  0  0  0  0  0
    1.2340    6.8550    1.0270 H   0  0  0  0  0  0  0  0  0  0  0  0
   -0.3350    6.0320   -1.4870 H   0  0  0  0  0  0  0  0  0  0  0  0
    2.2460    4.8350   -1.1980 H   0  0  0  0  0  0  0  0  0  0  0  0
    1.6350   10.3290   -0.1380 C   0  0  0  0  0  0  0  0  0  0  0  0
    1.2240   11.7350    0.3670 C   0  0  2  0  0  0  0  0  0  0  0  0
   -0.2580   11.6700    0.5180 N   0  0  0  0  0  0  0  0  0  0  0  0
   -0.6090   10.4070   -0.0370 N   0  0  0  0  0  0  0  0  0  0  0  0
    1.5800   12.9760   -0.4550 C   0  0  0  0  0  0  0  0  0  0  0  0
   -1.4930   10.0200    0.2960 H   0  0  0  0  0  0  0  0  0  0  0  0
   -0.6700   12.4490   -0.0170 H   0  0  0  0  0  0  0  0  0  0  0  0
    2.5870   10.0080    0.3010 H   0  0  0  0  0  0  0  0  0  0  0  0
    1.6400   11.8980    1.3680 H   0  0  0  0  0  0  0  0  0  0  0  0
    1.7350   10.2900   -1.2310 H   0  0  0  0  0  0  0  0  0  0  0  0
    0.5160    9.4310    1.4830 H   0  0  0  0  0  0  0  0  0  0  0  0
    0.5680   13.8840   -0.4910 O   0  0  0  0  0  0  0  0  0  0  0  0
    2.6750   13.2520   -0.9150 O   0  0  0  0  0  0  0  0  0  0  0  0
    0.9520   14.7120   -0.8450 H   0  0  0  0  0  0  0  0  0  0  0  0
  1  5  1  0  0  0  0
  2  1  1  0  0  0  0
  3  2  2  0  0  0  0
  4  2  1  6  0  0  0
  4 10  5  0  0  0  0
  6  4  5  0  0  0  0
  6  7  5  0  0  0  0
  6 13  1  0  0  0  0
  7 12  1  6  0  0  0
  8  7  5  0  0  0  0
  8 11  1  6  0  0  0
  9  8  5  0  0  0  0
  9 15  1  6  0  0  0
 10  9  5  0  0  0  0
 10 14  1  0  0  0  0
 11 22  1  0  0  0  0
 11 26  1  6  0  0  0
 12 16  1  0  0  0  0
 12 17  1  0  0  0  0
 12 18  1  0  0  0  0
 15 27  1  0  0  0  0
 19 11  1  0  0  0  0
 19 24  1  0  0  0  0
 19 25  1  0  0  0  0
 20 19  1  0  0  0  0
 21 20  1  0  0  0  0
 22 21  2  0  0  0  0
 23 20  1  0  0  0  0
 23 31  1  0  0  0  0
 23 38  1  1  0  0  0
 28 23  1  0  0  0  0
 28 35  1  0  0  0  0
 28 37  1  0  0  0  0
 29 28  1  0  0  0  0
 29 36  1  1  0  0  0
 30 29  1  0  0  0  0
 31 30  1  0  0  0  0
 32 29  1  0  0  0  0
 32 40  2  0  0  0  0
 33 31  1  0  0  0  0
 34 30  1  0  0  0  0
 39 32  1  0  0  0  0
 41 39  1  0  0  0  0
M  END
