41

O          1.07500       -0.43500        0.27400
C         -0.09700        0.22400        0.38200
O         -1.14700       -0.38900        0.52700
C         -0.02200        1.71900        0.25700
H          1.87200        0.10000        0.14100
C         -1.20400        2.36700        0.25200
C         -1.28800        3.70900        0.08200
C         -0.14900        4.45000       -0.10400
C          1.03600        3.78600       -0.08000
C          1.09600        2.45400        0.11300
C         -0.19500        5.96200       -0.39800
C         -2.70300        4.26900        0.03100
H         -2.12200        1.78700        0.36800
H          2.08400        2.01000        0.10700
O          2.23600        4.43300       -0.31100
H         -3.46400        3.48400       -0.05800
H         -2.93600        4.82200        0.94800
H         -2.84200        4.91000       -0.84600
C          0.89100        6.97800       -0.00600
N          0.07800        8.19600       -0.10100
N         -1.21400        7.85700        0.26400
N         -1.36700        6.62000        0.21400
C          0.46500        9.50400        0.38700
H          1.73100        7.02900       -0.70100
H          1.23400        6.85500        1.02700
H         -0.33500        6.03200       -1.48700
H          2.24600        4.83500       -1.19800
C          1.63500       10.32900       -0.13800
C          1.22400       11.73500        0.36700
N         -0.25800       11.67000        0.51800
N         -0.60900       10.40700       -0.03700
C          1.58000       12.97600       -0.45500
H         -1.49300       10.02000        0.29600
H         -0.67000       12.44900       -0.01700
H          2.58700       10.00800        0.30100
H          1.64000       11.89800        1.36800
H          1.73500       10.29000       -1.23100
H          0.51600        9.43100        1.48300
O          0.56800       13.88400       -0.49100
O          2.67500       13.25200       -0.91500
H          0.95200       14.71200       -0.84500
