
 OpenBabel11042013063D

 31 32  0  0  1  0  0  0  0  0999 V2000
    1.1510   -0.2270   -0.0970 O   0  0  0  0  0  0  0  0  0  0  0  0
   -0.0770    0.3520   -0.1680 C   0  0  0  0  0  0  0  0  0  0  0  0
   -1.0410   -0.3940   -0.2110 O   0  0  0  0  0  0  0  0  0  0  0  0
   -0.1640    1.8670   -0.1600 C   0  0  2  0  0  0  0  0  0  0  0  0
    1.9610    0.3110   -0.1450 H   0  0  0  0  0  0  0  0  0  0  0  0
   -1.3320    2.5700   -0.1760 C   0  0  1  0  0  0  0  0  0  0  0  0
   -1.2450    3.9350   -0.1210 C   0  0  0  0  0  0  0  0  0  0  0  0
   -0.0730    4.6170   -0.0310 C   0  0  2  0  0  0  0  0  0  0  0  0
    1.0680    3.9030   -0.0890 C   0  0  2  0  0  0  0  0  0  0  0  0
    0.9890    2.5760   -0.1410 C   0  0  0  0  0  0  0  0  0  0  0  0
   -0.1680    6.1190    0.2610 C   0  0  1  0  0  0  0  0  0  0  0  0
   -2.1660    4.5140   -0.1130 H   0  0  0  0  0  0  0  0  0  0  0  0
   -2.7550    1.9410   -0.2860 C   0  0  0  0  0  0  0  0  0  0  0  0
    1.9560    2.0670   -0.1260 H   0  0  0  0  0  0  0  0  0  0  0  0
    2.8280    4.6030   -0.0430 Br  0  0  0  0  0  0  0  0  0  0  0  0
    0.9800    7.0910    0.1370 C   0  0  0  0  0  0  0  0  0  0  0  0
    0.2100    8.2900    0.1250 N   0  0  0  0  0  0  0  0  0  0  0  0
   -1.0230    8.0790   -0.4390 N   0  0  0  0  0  0  0  0  0  0  0  0
   -1.2270    6.8350   -0.5060 N   0  0  0  0  0  0  0  0  0  0  0  0
    0.7880    9.5090    0.2190 N   0  0  0  0  0  0  0  0  0  0  0  0
    1.4950    7.0510   -0.8290 H   0  0  0  0  0  0  0  0  0  0  0  0
    1.6780    7.0760    0.9780 H   0  0  0  0  0  0  0  0  0  0  0  0
   -0.4970    6.1570    1.3130 H   0  0  0  0  0  0  0  0  0  0  0  0
    0.2000   10.3120   -0.5140 N   0  0  0  0  0  0  0  0  0  0  0  0
    0.2670   11.5810   -0.0620 C   0  0  0  0  0  0  0  0  0  0  0  0
   -3.6150    1.7210    0.4000 H   0  0  0  0  0  0  0  0  0  0  0  0
   -2.4910    1.0530    0.2880 H   0  0  0  0  0  0  0  0  0  0  0  0
   -3.3180    2.8810   -0.2300 H   0  0  0  0  0  0  0  0  0  0  0  0
   -0.9830   12.1250   -0.0540 O   0  0  0  0  0  0  0  0  0  0  0  0
    1.2290   12.2430    0.3060 O   0  0  0  0  0  0  0  0  0  0  0  0
   -0.8360   13.0210    0.3060 H   0  0  0  0  0  0  0  0  0  0  0  0
  1  5  1  0  0  0  0
  2  1  1  0  0  0  0
  3  2  2  0  0  0  0
  4  2  1  6  0  0  0
  4 10  5  0  0  0  0
  6  4  5  0  0  0  0
  6  7  5  0  0  0  0
  6 13  1  6  0  0  0
  7 12  1  0  0  0  0
  8  7  5  1  0  0  0
  8 11  1  0  0  0  0
  9  8  5  0  0  0  0
  9 15  1  1  0  0  0
 10  9  5  0  0  0  0
 10 14  1  0  0  0  0
 11 19  1  0  0  0  0
 11 23  1  1  0  0  0
 13 26  1  0  0  0  0
 13 27  1  0  0  0  0
 13 28  1  0  0  0  0
 16 11  1  0  0  0  0
 16 21  1  0  0  0  0
 16 22  1  0  0  0  0
 17 16  1  0  0  0  0
 18 17  1  0  0  0  0
 19 18  2  0  0  0  0
 20 17  1  0  0  0  0
 24 20  2  0  0  0  0
 25 24  1  0  0  0  0
 25 30  2  0  0  0  0
 29 25  1  0  0  0  0
 31 29  1  0  0  0  0
M  END
