31

O          1.15100       -0.22700       -0.09700
C         -0.07700        0.35200       -0.16800
O         -1.04100       -0.39400       -0.21100
C         -0.16400        1.86700       -0.16000
H          1.96100        0.31100       -0.14500
C         -1.33200        2.57000       -0.17600
C         -1.24500        3.93500       -0.12100
C         -0.07300        4.61700       -0.03100
C          1.06800        3.90300       -0.08900
C          0.98900        2.57600       -0.14100
C         -0.16800        6.11900        0.26100
H         -2.16600        4.51400       -0.11300
C         -2.75500        1.94100       -0.28600
H          1.95600        2.06700       -0.12600
Br         2.82800        4.60300       -0.04300
C          0.98000        7.09100        0.13700
N          0.21000        8.29000        0.12500
N         -1.02300        8.07900       -0.43900
N         -1.22700        6.83500       -0.50600
N          0.78800        9.50900        0.21900
H          1.49500        7.05100       -0.82900
H          1.67800        7.07600        0.97800
H         -0.49700        6.15700        1.31300
N          0.20000       10.31200       -0.51400
C          0.26700       11.58100       -0.06200
H         -3.61500        1.72100        0.40000
H         -2.49100        1.05300        0.28800
H         -3.31800        2.88100       -0.23000
O         -0.98300       12.12500       -0.05400
O          1.22900       12.24300        0.30600
H         -0.83600       13.02100        0.30600
