
 OpenBabel11042013033D

 40 41  0  0  1  0  0  0  0  0999 V2000
    1.4110   -0.3380   -0.0140 O   0  0  0  0  0  0  0  0  0  0  0  0
    0.2090    0.2690    0.0570 C   0  0  0  0  0  0  0  0  0  0  0  0
   -0.8050   -0.4090    0.0090 O   0  0  0  0  0  0  0  0  0  0  0  0
    0.2030    1.7740    0.1390 C   0  0  2  0  0  0  0  0  0  0  0  0
    2.2170    0.1970    0.0010 H   0  0  0  0  0  0  0  0  0  0  0  0
   -0.9820    2.4190    0.2350 C   0  0  1  0  0  0  0  0  0  0  0  0
   -0.9970    3.7660    0.1800 C   0  0  0  0  0  0  0  0  0  0  0  0
    0.1130    4.5400    0.0700 C   0  0  1  0  0  0  0  0  0  0  0  0
    1.3230    3.8960    0.0820 C   0  0  1  0  0  0  0  0  0  0  0  0
    1.3240    2.5300    0.0940 C   0  0  0  0  0  0  0  0  0  0  0  0
   -0.1330    6.0310   -0.2020 C   0  0  2  0  0  0  0  0  0  0  0  0
   -1.9830    4.2290    0.1910 H   0  0  0  0  0  0  0  0  0  0  0  0
   -2.2580    1.7810    0.3760 C   0  0  0  0  0  0  0  0  0  0  0  0
    2.2980    2.0560    0.0410 H   0  0  0  0  0  0  0  0  0  0  0  0
    2.7380    4.4900    0.0420 C   0  0  0  0  0  0  0  0  0  0  0  0
    0.6190    7.0220    0.5370 O   0  0  0  0  0  0  0  0  0  0  0  0
   -1.3290    8.0910   -0.1880 C   0  0  0  0  0  0  0  0  0  0  0  0
   -1.5460    6.5990   -0.0400 C   0  0  0  0  0  0  0  0  0  0  0  0
    0.7490    9.5400    0.4190 C   0  0  0  0  0  0  0  0  0  0  0  0
   -2.2680    6.2190   -0.7680 H   0  0  0  0  0  0  0  0  0  0  0  0
   -1.6980    8.4680   -1.1470 H   0  0  0  0  0  0  0  0  0  0  0  0
   -1.8670    8.6110    0.6130 H   0  0  0  0  0  0  0  0  0  0  0  0
   -1.9250    6.4010    0.9720 H   0  0  0  0  0  0  0  0  0  0  0  0
    0.6020    8.1950   -1.1250 H   0  0  0  0  0  0  0  0  0  0  0  0
    0.1910    8.2430   -0.1060 C   0  0  1  0  0  0  0  0  0  0  0  0
    0.1380    6.1360   -1.2660 H   0  0  0  0  0  0  0  0  0  0  0  0
   -0.0100   10.6510    0.3930 C   0  0  0  0  0  0  0  0  0  0  0  0
    0.5010   12.0270    0.4410 C   0  0  0  0  0  0  0  0  0  0  0  0
   -1.0680   10.6060    0.1650 H   0  0  0  0  0  0  0  0  0  0  0  0
    1.8230    9.5990    0.5910 H   0  0  0  0  0  0  0  0  0  0  0  0
   -3.3400    1.3870    0.5270 N   0  0  0  0  0  0  0  0  0  0  0  0
    3.0200    5.9370   -0.3140 C   0  0  0  0  0  0  0  0  0  0  0  0
    2.4880    6.2500   -1.2150 H   0  0  0  0  0  0  0  0  0  0  0  0
    4.0910    6.0750   -0.4980 H   0  0  0  0  0  0  0  0  0  0  0  0
    2.7910    6.5930    0.5270 H   0  0  0  0  0  0  0  0  0  0  0  0
    3.3360    3.8970   -0.6640 H   0  0  0  0  0  0  0  0  0  0  0  0
    3.1820    4.3150    1.0330 H   0  0  0  0  0  0  0  0  0  0  0  0
   -0.5430   12.8600    0.2670 O   0  0  0  0  0  0  0  0  0  0  0  0
    1.6520   12.4050    0.4950 O   0  0  0  0  0  0  0  0  0  0  0  0
   -0.1550   13.7540    0.1850 H   0  0  0  0  0  0  0  0  0  0  0  0
  1  5  1  0  0  0  0
  2  1  1  0  0  0  0
  3  2  2  0  0  0  0
  4  2  1  6  0  0  0
  4 10  5  0  0  0  0
  6  4  5  0  0  0  0
  6  7  5  0  0  0  0
  6 13  1  6  0  0  0
  7 12  1  0  0  0  0
  8  7  5  6  0  0  0
  8 11  1  0  0  0  0
  9  8  5  0  0  0  0
  9 15  1  6  0  0  0
 10  9  5  0  0  0  0
 10 14  1  0  0  0  0
 11 18  1  0  0  0  0
 11 26  1  6  0  0  0
 13 31  3  0  0  0  0
 15 36  1  0  0  0  0
 15 37  1  0  0  0  0
 16 11  1  0  0  0  0
 17 25  1  0  0  0  0
 17 22  1  0  0  0  0
 18 17  1  0  0  0  0
 18 23  1  0  0  0  0
 19 25  1  0  0  0  0
 19 30  1  0  0  0  0
 20 18  1  0  0  0  0
 21 17  1  0  0  0  0
 25 16  1  0  0  0  0
 25 24  1  6  0  0  0
 27 19  2  0  0  0  0
 27 29  1  0  0  0  0
 28 27  1  0  0  0  0
 28 39  2  0  0  0  0
 32 33  1  0  0  0  0
 32 34  1  0  0  0  0
 32 35  1  0  0  0  0
 32 15  1  0  0  0  0
 38 28  1  0  0  0  0
 40 38  1  0  0  0  0
M  END
