
 OpenBabel11042013063D

 24 24  0  0  1  0  0  0  0  0999 V2000
    1.4540    0.3140    0.0020 O   0  0  0  0  0  0  0  0  0  0  0  0
    0.2320    0.8930    0.0140 C   0  0  0  0  0  0  0  0  0  0  0  0
   -0.7400    0.1550    0.0250 O   0  0  0  0  0  0  0  0  0  0  0  0
    0.1780    2.4120    0.0140 C   0  0  2  0  0  0  0  0  0  0  0  0
    2.2600    0.8460    0.0080 H   0  0  0  0  0  0  0  0  0  0  0  0
   -0.9920    3.1250    0.0220 C   0  0  1  0  0  0  0  0  0  0  0  0
   -0.9700    4.5060    0.0270 C   0  0  2  0  0  0  0  0  0  0  0  0
    0.2210    5.1840    0.0150 C   0  0  1  0  0  0  0  0  0  0  0  0
    1.3520    4.4410    0.0020 C   0  0  0  0  0  0  0  0  0  0  0  0
    1.3370    3.1040    0.0030 C   0  0  0  0  0  0  0  0  0  0  0  0
    0.5040    6.6390    0.0070 C   0  0  0  0  0  0  0  0  0  0  0  0
   -2.6390    5.4520    0.0610 Br  0  0  0  0  0  0  0  0  0  0  0  0
   -2.6920    2.2180    0.0200 Br  0  0  0  0  0  0  0  0  0  0  0  0
    2.3180    2.6480   -0.0040 H   0  0  0  0  0  0  0  0  0  0  0  0
    2.3330    4.9140   -0.0070 H   0  0  0  0  0  0  0  0  0  0  0  0
   -0.2840    7.7210   -0.0040 C   0  0  0  0  0  0  0  0  0  0  0  0
    0.2080    9.0030   -0.0160 N   0  0  0  0  0  0  0  0  0  0  0  0
   -1.3610    7.6570   -0.0090 H   0  0  0  0  0  0  0  0  0  0  0  0
    1.5700    6.8900    0.0050 H   0  0  0  0  0  0  0  0  0  0  0  0
   -0.7000    9.8580    0.0380 N   0  0  0  0  0  0  0  0  0  0  0  0
   -0.2510   11.1500   -0.0030 C   0  0  0  0  0  0  0  0  0  0  0  0
   -1.2980   12.0040    0.0110 O   0  0  0  0  0  0  0  0  0  0  0  0
    0.8910   11.5850   -0.0500 O   0  0  0  0  0  0  0  0  0  0  0  0
   -0.8710   12.8810   -0.0250 H   0  0  0  0  0  0  0  0  0  0  0  0
  1  5  1  0  0  0  0
  2  1  1  0  0  0  0
  3  2  2  0  0  0  0
  4  2  1  6  0  0  0
  4 10  5  0  0  0  0
  6  4  5  0  0  0  0
  6  7  5  0  0  0  0
  6 13  1  6  0  0  0
  7 12  1  1  0  0  0
  8  7  5  0  0  0  0
  8 11  1  6  0  0  0
  9  8  5  0  0  0  0
  9 15  1  0  0  0  0
 10  9  5  0  0  0  0
 10 14  1  0  0  0  0
 11 19  1  0  0  0  0
 16 11  2  0  0  0  0
 16 18  1  0  0  0  0
 17 16  1  0  0  0  0
 20 17  2  0  0  0  0
 21 20  1  0  0  0  0
 21 23  2  0  0  0  0
 22 21  1  0  0  0  0
 24 22  1  0  0  0  0
M  END
