24

O          1.45400        0.31400        0.00200
C          0.23200        0.89300        0.01400
O         -0.74000        0.15500        0.02500
C          0.17800        2.41200        0.01400
H          2.26000        0.84600        0.00800
C         -0.99200        3.12500        0.02200
C         -0.97000        4.50600        0.02700
C          0.22100        5.18400        0.01500
C          1.35200        4.44100        0.00200
C          1.33700        3.10400        0.00300
C          0.50400        6.63900        0.00700
Br        -2.63900        5.45200        0.06100
Br        -2.69200        2.21800        0.02000
H          2.31800        2.64800       -0.00400
H          2.33300        4.91400       -0.00700
C         -0.28400        7.72100       -0.00400
N          0.20800        9.00300       -0.01600
H         -1.36100        7.65700       -0.00900
H          1.57000        6.89000        0.00500
N         -0.70000        9.85800        0.03800
C         -0.25100       11.15000       -0.00300
O         -1.29800       12.00400        0.01100
O          0.89100       11.58500       -0.05000
H         -0.87100       12.88100       -0.02500
