
 OpenBabel11042013063D

 31 32  0  0  1  0  0  0  0  0999 V2000
    1.8680   -0.1690    0.1970 O   0  0  0  0  0  0  0  0  0  0  0  0
    0.6860    0.4660    0.2910 C   0  0  0  0  0  0  0  0  0  0  0  0
   -0.3440   -0.1900    0.3780 O   0  0  0  0  0  0  0  0  0  0  0  0
    0.7060    1.9720    0.2240 C   0  0  2  0  0  0  0  0  0  0  0  0
    2.6420    0.4150    0.1170 H   0  0  0  0  0  0  0  0  0  0  0  0
   -0.5420    2.4850    0.2210 C   0  0  0  0  0  0  0  0  0  0  0  0
   -0.7670    3.7990    0.0920 C   0  0  1  0  0  0  0  0  0  0  0  0
    0.2560    4.6890   -0.0510 C   0  0  1  0  0  0  0  0  0  0  0  0
    1.5410    4.1840   -0.0280 C   0  0  1  0  0  0  0  0  0  0  0  0
    1.7480    2.8360    0.1340 C   0  0  2  0  0  0  0  0  0  0  0  0
   -0.1000    6.1730   -0.3470 C   0  0  2  0  0  0  0  0  0  0  0  0
   -2.1320    4.1860    0.0410 N   0  0  0  0  0  0  0  0  0  0  0  0
   -1.4030    1.8220    0.2960 H   0  0  0  0  0  0  0  0  0  0  0  0
    3.3830    2.2070    0.1630 Cl  0  0  0  0  0  0  0  0  0  0  0  0
    2.7310    5.1030   -0.2670 C   0  0  0  0  0  0  0  0  0  0  0  0
    2.8920    5.7650    0.5880 H   0  0  0  0  0  0  0  0  0  0  0  0
    2.5790    5.6790   -1.1840 H   0  0  0  0  0  0  0  0  0  0  0  0
    3.6860    4.6020   -0.4370 H   0  0  0  0  0  0  0  0  0  0  0  0
   -2.3500    5.1210    0.3840 H   0  0  0  0  0  0  0  0  0  0  0  0
   -2.8390    3.5130    0.3170 H   0  0  0  0  0  0  0  0  0  0  0  0
    0.8400    7.3400   -0.1390 C   0  0  0  0  0  0  0  0  0  0  0  0
   -0.1210    8.4010   -0.0120 N   0  0  0  0  0  0  0  0  0  0  0  0
   -1.3240    7.9410    0.4100 N   0  0  0  0  0  0  0  0  0  0  0  0
   -1.2940    6.6800    0.4060 N   0  0  0  0  0  0  0  0  0  0  0  0
    0.1800    9.7310   -0.0940 C   0  0  0  0  0  0  0  0  0  0  0  0
    1.5110    7.5380   -0.9780 H   0  0  0  0  0  0  0  0  0  0  0  0
    1.3930    7.3090    0.8040 H   0  0  0  0  0  0  0  0  0  0  0  0
   -0.3900    6.1810   -1.4130 H   0  0  0  0  0  0  0  0  0  0  0  0
   -0.8800   10.5480    0.0520 O   0  0  0  0  0  0  0  0  0  0  0  0
    1.2890   10.2030   -0.3030 O   0  0  0  0  0  0  0  0  0  0  0  0
   -0.4970   11.4420   -0.0380 H   0  0  0  0  0  0  0  0  0  0  0  0
  1  5  1  0  0  0  0
  2  1  1  0  0  0  0
  3  2  2  0  0  0  0
  4  2  1  6  0  0  0
  4 10  5  0  0  0  0
  6  4  5  0  0  0  0
  6  7  5  0  0  0  0
  6 13  1  0  0  0  0
  7 12  1  6  0  0  0
  8  7  5  0  0  0  0
  8 11  1  6  0  0  0
  9  8  5  0  0  0  0
  9 15  1  6  0  0  0
 10  9  5  0  0  0  0
 10 14  1  6  0  0  0
 11 24  1  0  0  0  0
 11 28  1  6  0  0  0
 12 19  1  0  0  0  0
 12 20  1  0  0  0  0
 15 16  1  0  0  0  0
 15 17  1  0  0  0  0
 15 18  1  0  0  0  0
 21 11  1  0  0  0  0
 21 26  1  0  0  0  0
 21 27  1  0  0  0  0
 22 21  1  0  0  0  0
 23 22  1  0  0  0  0
 24 23  2  0  0  0  0
 25 22  1  0  0  0  0
 25 30  2  0  0  0  0
 29 25  1  0  0  0  0
 31 29  1  0  0  0  0
M  END
