27

O          1.47500        0.28400       -0.00500
C          0.23700        0.80900       -0.15100
O         -0.72600        0.07300       -0.28400
C          0.21400        2.29300       -0.05900
H          1.30900       -0.68500       -0.00400
C         -0.99800        2.87200        0.10600
C         -1.10300        4.20800        0.26800
C          0.00500        4.99300        0.25700
C          1.20100        4.39500        0.04800
C          1.32400        3.06600       -0.10800
N          0.01600        6.34600        0.52000
N         -2.40200        4.76600        0.47400
H         -1.89200        2.25300        0.14300
O          2.60300        2.56500       -0.28500
H          2.09800        5.00800        0.02900
N         -0.42900        7.11000       -0.36100
C         -0.00800        8.40000       -0.16800
H         -2.45000        5.77000        0.32200
H         -3.18200        4.26900        0.05500
C         -0.81700        9.46400       -0.14400
C         -0.22100       10.78900        0.03600
H         -1.89000        9.38600       -0.24900
H          1.06800        8.52600       -0.04400
H          2.61300        1.58700       -0.24400
O         -1.17100       11.73600        0.00300
O          0.95600       11.05600        0.18400
H         -0.67500       12.57500        0.11300
