
 OpenBabel11042013063D

 27 27  0  0  1  0  0  0  0  0999 V2000
    1.4750    0.2840   -0.0050 O   0  0  0  0  0  0  0  0  0  0  0  0
    0.2370    0.8090   -0.1510 C   0  0  0  0  0  0  0  0  0  0  0  0
   -0.7260    0.0730   -0.2840 O   0  0  0  0  0  0  0  0  0  0  0  0
    0.2140    2.2930   -0.0590 C   0  0  1  0  0  0  0  0  0  0  0  0
    1.3090   -0.6850   -0.0040 H   0  0  0  0  0  0  0  0  0  0  0  0
   -0.9980    2.8720    0.1060 C   0  0  0  0  0  0  0  0  0  0  0  0
   -1.1030    4.2080    0.2680 C   0  0  2  0  0  0  0  0  0  0  0  0
    0.0050    4.9930    0.2570 C   0  0  2  0  0  0  0  0  0  0  0  0
    1.2010    4.3950    0.0480 C   0  0  0  0  0  0  0  0  0  0  0  0
    1.3240    3.0660   -0.1080 C   0  0  1  0  0  0  0  0  0  0  0  0
    0.0160    6.3460    0.5200 N   0  0  0  0  0  0  0  0  0  0  0  0
   -2.4020    4.7660    0.4740 N   0  0  0  0  0  0  0  0  0  0  0  0
   -1.8920    2.2530    0.1430 H   0  0  0  0  0  0  0  0  0  0  0  0
    2.6030    2.5650   -0.2850 O   0  0  0  0  0  0  0  0  0  0  0  0
    2.0980    5.0080    0.0290 H   0  0  0  0  0  0  0  0  0  0  0  0
   -0.4290    7.1100   -0.3610 N   0  0  0  0  0  0  0  0  0  0  0  0
   -0.0080    8.4000   -0.1680 C   0  0  0  0  0  0  0  0  0  0  0  0
   -2.4500    5.7700    0.3220 H   0  0  0  0  0  0  0  0  0  0  0  0
   -3.1820    4.2690    0.0550 H   0  0  0  0  0  0  0  0  0  0  0  0
   -0.8170    9.4640   -0.1440 C   0  0  0  0  0  0  0  0  0  0  0  0
   -0.2210   10.7890    0.0360 C   0  0  0  0  0  0  0  0  0  0  0  0
   -1.8900    9.3860   -0.2490 H   0  0  0  0  0  0  0  0  0  0  0  0
    1.0680    8.5260   -0.0440 H   0  0  0  0  0  0  0  0  0  0  0  0
    2.6130    1.5870   -0.2440 H   0  0  0  0  0  0  0  0  0  0  0  0
   -1.1710   11.7360    0.0030 O   0  0  0  0  0  0  0  0  0  0  0  0
    0.9560   11.0560    0.1840 O   0  0  0  0  0  0  0  0  0  0  0  0
   -0.6750   12.5750    0.1130 H   0  0  0  0  0  0  0  0  0  0  0  0
  1  5  1  0  0  0  0
  2  1  1  0  0  0  0
  3  2  2  0  0  0  0
  4  2  1  1  0  0  0
  4 10  5  0  0  0  0
  6  4  5  0  0  0  0
  6  7  5  0  0  0  0
  6 13  1  0  0  0  0
  7 12  1  1  0  0  0
  8  7  5  0  0  0  0
  8 11  1  1  0  0  0
  9  8  5  0  0  0  0
  9 15  1  0  0  0  0
 10  9  5  0  0  0  0
 10 14  1  1  0  0  0
 12 18  1  0  0  0  0
 12 19  1  0  0  0  0
 14 24  1  0  0  0  0
 16 11  2  0  0  0  0
 17 16  1  0  0  0  0
 17 23  1  0  0  0  0
 20 17  2  0  0  0  0
 20 22  1  0  0  0  0
 21 20  1  0  0  0  0
 21 26  2  0  0  0  0
 25 21  1  0  0  0  0
 27 25  1  0  0  0  0
M  END
