
 OpenBabel11042013063D

 31 32  0  0  1  0  0  0  0  0999 V2000
    1.1380   -0.2190    0.0440 O   0  0  0  0  0  0  0  0  0  0  0  0
    0.0240    0.5290    0.1360 C   0  0  0  0  0  0  0  0  0  0  0  0
   -1.0630   -0.0290    0.2330 O   0  0  0  0  0  0  0  0  0  0  0  0
    0.1430    2.0280    0.0720 C   0  0  2  0  0  0  0  0  0  0  0  0
    2.0330    0.1530   -0.0540 H   0  0  0  0  0  0  0  0  0  0  0  0
   -1.0620    2.6600    0.0750 C   0  0  0  0  0  0  0  0  0  0  0  0
   -1.1490    3.9970   -0.0350 C   0  0  0  0  0  0  0  0  0  0  0  0
   -0.0370    4.7520   -0.1400 C   0  0  1  0  0  0  0  0  0  0  0  0
    1.1610    4.1370   -0.0980 C   0  0  0  0  0  0  0  0  0  0  0  0
    1.2600    2.7950    0.0050 C   0  0  2  0  0  0  0  0  0  0  0  0
   -0.0860    6.1090   -0.3060 N   0  0  0  0  0  0  0  0  0  0  0  0
   -2.1270    4.4740   -0.0460 H   0  0  0  0  0  0  0  0  0  0  0  0
   -1.9960    2.1020    0.1490 H   0  0  0  0  0  0  0  0  0  0  0  0
    2.5650    2.2470    0.0250 C   0  0  0  0  0  0  0  0  0  0  0  0
    2.0570    4.7560   -0.1570 H   0  0  0  0  0  0  0  0  0  0  0  0
   -0.4880    6.7210    0.6980 N   0  0  0  0  0  0  0  0  0  0  0  0
   -0.4300    8.0300    0.4570 C   0  0  0  0  0  0  0  0  0  0  0  0
    3.5680    1.6700    0.0290 N   0  0  0  0  0  0  0  0  0  0  0  0
   -0.3930    9.2220    0.3530 C   0  0  0  0  0  0  0  0  0  0  0  0
   -0.4280   10.6610    0.4870 C   0  0  1  0  0  0  0  0  0  0  0  0
    0.7680   11.4210    0.0020 C   0  0  0  0  0  0  0  0  0  0  0  0
    0.0830   12.6440   -0.3350 N   0  0  0  0  0  0  0  0  0  0  0  0
   -1.2330   12.4160   -0.6370 N   0  0  0  0  0  0  0  0  0  0  0  0
   -1.5120   11.2190   -0.3450 N   0  0  0  0  0  0  0  0  0  0  0  0
    0.5640   13.8980   -0.0890 C   0  0  0  0  0  0  0  0  0  0  0  0
    1.5490   11.5550    0.7550 H   0  0  0  0  0  0  0  0  0  0  0  0
    1.2070   11.0190   -0.9190 H   0  0  0  0  0  0  0  0  0  0  0  0
   -0.6430   10.9100    1.5330 H   0  0  0  0  0  0  0  0  0  0  0  0
   -0.3540   14.8740   -0.2420 O   0  0  0  0  0  0  0  0  0  0  0  0
    1.6930   14.1790    0.2880 O   0  0  0  0  0  0  0  0  0  0  0  0
    0.1210   15.6900    0.0080 H   0  0  0  0  0  0  0  0  0  0  0  0
  1  5  1  0  0  0  0
  2  1  1  0  0  0  0
  3  2  2  0  0  0  0
  4  2  1  6  0  0  0
  4 10  5  0  0  0  0
  6  4  5  0  0  0  0
  6  7  5  0  0  0  0
  6 13  1  0  0  0  0
  7 12  1  0  0  0  0
  8  7  5  0  0  0  0
  8 11  1  6  0  0  0
  9  8  5  0  0  0  0
  9 15  1  0  0  0  0
 10  9  5  0  0  0  0
 10 14  1  6  0  0  0
 14 18  3  0  0  0  0
 16 11  2  0  0  0  0
 17 16  1  0  0  0  0
 19 17  3  0  0  0  0
 20 19  1  0  0  0  0
 20 24  1  0  0  0  0
 20 28  1  1  0  0  0
 21 20  1  0  0  0  0
 21 26  1  0  0  0  0
 21 27  1  0  0  0  0
 22 21  1  0  0  0  0
 23 22  1  0  0  0  0
 24 23  2  0  0  0  0
 25 22  1  0  0  0  0
 25 30  2  0  0  0  0
 29 25  1  0  0  0  0
 31 29  1  0  0  0  0
M  END
