33

O          0.99800       -0.27300        0.05700
C         -0.10700        0.48900        0.02000
O         -1.20800       -0.04800       -0.01300
C          0.07700        1.98600        0.03400
H          1.84100        0.17800        0.17700
C         -1.12700        2.61900        0.04700
C         -1.22500        3.95900        0.04500
C         -0.10300        4.69000        0.06100
C          1.09300        4.08500        0.05500
C          1.22000        2.73700        0.01400
C         -0.15500        6.09700        0.04700
H         -2.20400        4.43500        0.02700
H         -2.06700        2.06600        0.04400
C          2.64000        2.24400       -0.11600
F          2.20600        4.86000        0.06900
H          2.98800        1.76800        0.80500
H          3.35100        3.05200       -0.33400
H          2.73000        1.56400       -0.96800
C         -0.11700        7.29100        0.02000
C         -0.08900        8.69700       -0.00300
C         -1.25800        9.36300       -0.01100
C         -1.26400       10.70600       -0.01100
C         -0.09300       11.38200       -0.00600
C          1.08500       10.71600       -0.00400
C          1.08400        9.36700       -0.00300
C         -0.06500       12.86600        0.00200
H         -2.21700       11.22100       -0.01400
H         -2.19700        8.82400       -0.01400
H          2.02800        8.82400       -0.00100
H          2.03200       11.24200        0.00200
O         -1.29900       13.40900        0.00300
O          0.93000       13.57200        0.01100
H         -1.12400       14.37100        0.01000
