51

O          1.43000       -0.78100       -0.28700
C          0.23600       -0.16200       -0.44200
O         -0.77500       -0.79400       -0.71000
C          0.24000        1.31500       -0.20700
H          2.14500       -0.23900        0.07800
C         -0.94300        1.93800       -0.10800
C         -1.05900        3.26900        0.12800
C          0.09900        4.01600        0.32400
C          1.27300        3.35600        0.16900
C          1.36000        2.05000       -0.10800
C          0.15200        5.51200        0.55700
C         -2.46900        3.88100        0.13500
H         -1.84600        1.33700       -0.24500
H          2.35700        1.64700       -0.25300
H          2.23200        3.85600        0.23400
C         -0.93400        6.25700        0.82000
C         -0.94500        7.57200        0.65100
C          0.15100        8.27000        0.28800
C          1.33800        7.60200        0.32100
C          1.29200        6.24400        0.44800
C         -0.13700        9.67300       -0.21200
H         -1.93500        8.00900        0.72900
H         -1.90200        5.87500        1.07400
H          2.25100        5.74200        0.39700
C          2.76500        8.12300        0.11100
C          3.04900        9.40300       -0.64900
H          4.02800        9.32400       -1.13900
H          2.31500        9.59900       -1.43100
H          3.11100       10.25000        0.03700
H          3.32800        7.35000       -0.43300
H          3.24900        8.19100        1.09800
C         -3.79000        3.18200       -0.19100
H         -3.71000        2.15600       -0.54000
H         -4.43000        3.20000        0.70100
H         -4.33500        3.76200       -0.94700
H         -2.63000        4.20800        1.16700
H         -2.44700        4.73300       -0.56100
O          0.65800       10.73600        0.30700
C         -1.43200       11.66500       -0.29000
C         -1.55600       10.20200        0.01300
C          0.38100       13.25000        0.32300
H         -2.31100        9.71100       -0.61100
H         -1.95900       12.24500        0.47500
H         -1.87600       11.91500       -1.25900
H         -1.84700       10.09900        1.06800
H          0.45000       11.94600       -1.32700
C          0.07600       11.90300       -0.29300
H          0.02900        9.62200       -1.30000
O         -0.31700       14.24400       -0.28500
O          1.15500       13.51400        1.22500
H         -0.04900       15.04800        0.19900
