
 OpenBabel11042014053D

 28 29  0  0  1  0  0  0  0  0999 V2000
    1.3560   -0.1340   -0.0380 O   0  0  0  0  0  0  0  0  0  0  0  0
    0.1680    0.5030   -0.0500 C   0  0  0  0  0  0  0  0  0  0  0  0
   -0.8430   -0.1880   -0.0640 O   0  0  0  0  0  0  0  0  0  0  0  0
    0.2000    2.0270   -0.0310 C   0  0  1  0  0  0  0  0  0  0  0  0
    2.1400    0.4360   -0.0220 H   0  0  0  0  0  0  0  0  0  0  0  0
   -1.0200    2.6450   -0.0150 C   0  0  2  0  0  0  0  0  0  0  0  0
   -1.1180    3.9960    0.0570 C   0  0  2  0  0  0  0  0  0  0  0  0
   -0.0170    4.7830    0.0900 C   0  0  2  0  0  0  0  0  0  0  0  0
    1.1860    4.1710    0.0330 C   0  0  0  0  0  0  0  0  0  0  0  0
    1.3120    2.8210   -0.0280 C   0  0  1  0  0  0  0  0  0  0  0  0
   -0.1650    6.2950    0.2860 C   0  0  1  0  0  0  0  0  0  0  0  0
   -2.3580    4.6100    0.1410 O   0  0  0  0  0  0  0  0  0  0  0  0
   -2.1960    1.8990   -0.0150 O   0  0  0  0  0  0  0  0  0  0  0  0
    3.1050    2.2030   -0.0530 Br  0  0  0  0  0  0  0  0  0  0  0  0
    2.0890    4.7790    0.0640 H   0  0  0  0  0  0  0  0  0  0  0  0
   -3.1190    4.0220    0.2280 H   0  0  0  0  0  0  0  0  0  0  0  0
   -2.9690    2.3350   -0.3970 H   0  0  0  0  0  0  0  0  0  0  0  0
    0.9460    7.2870   -0.0070 C   0  0  0  0  0  0  0  0  0  0  0  0
    0.1310    8.4640   -0.2190 N   0  0  0  0  0  0  0  0  0  0  0  0
   -1.1270    8.1350   -0.6190 N   0  0  0  0  0  0  0  0  0  0  0  0
   -1.2680    6.8880   -0.5200 N   0  0  0  0  0  0  0  0  0  0  0  0
    0.4980    9.7640   -0.0070 C   0  0  0  0  0  0  0  0  0  0  0  0
    1.6590    7.4270    0.8100 H   0  0  0  0  0  0  0  0  0  0  0  0
    1.4790    7.0840   -0.9410 H   0  0  0  0  0  0  0  0  0  0  0  0
   -0.4410    6.4220    1.3450 H   0  0  0  0  0  0  0  0  0  0  0  0
   -0.5160   10.6430   -0.1770 O   0  0  0  0  0  0  0  0  0  0  0  0
    1.6000   10.1580    0.3350 O   0  0  0  0  0  0  0  0  0  0  0  0
   -0.1310   11.5150    0.0350 H   0  0  0  0  0  0  0  0  0  0  0  0
  1  5  1  0  0  0  0
  2  1  1  0  0  0  0
  3  2  2  0  0  0  0
  4  2  1  1  0  0  0
  4 10  5  0  0  0  0
  6  4  5  0  0  0  0
  6  7  5  0  0  0  0
  6 13  1  1  0  0  0
  7 12  1  1  0  0  0
  8  7  5  0  0  0  0
  8  9  5  1  0  0  0
  8 11  1  0  0  0  0
  9 15  1  0  0  0  0
 10  9  5  0  0  0  0
 10 14  1  1  0  0  0
 11 21  1  0  0  0  0
 11 25  1  1  0  0  0
 12 16  1  0  0  0  0
 13 17  1  0  0  0  0
 18 11  1  0  0  0  0
 18 23  1  0  0  0  0
 18 24  1  0  0  0  0
 19 18  1  0  0  0  0
 20 19  1  0  0  0  0
 21 20  2  0  0  0  0
 22 19  1  0  0  0  0
 22 27  2  0  0  0  0
 26 22  1  0  0  0  0
 28 26  1  0  0  0  0
M  END
