
 OpenBabel11032017293D

 49 51  0  0  1  0  0  0  0  0999 V2000
    0.7450   -0.4700   -0.9310 O   0  0  0  0  0  0  0  0  0  0  0  0
   -0.3510    0.0850   -0.3820 C   0  0  0  0  0  0  0  0  0  0  0  0
   -1.3720   -0.5680   -0.2200 O   0  0  0  0  0  0  0  0  0  0  0  0
   -0.2380    1.5530   -0.0800 C   0  0  2  0  0  0  0  0  0  0  0  0
    1.3990    0.1890   -1.2100 H   0  0  0  0  0  0  0  0  0  0  0  0
   -1.4460    2.1730   -0.1160 C   0  0  0  0  0  0  0  0  0  0  0  0
   -1.5850    3.4970    0.0650 C   0  0  0  0  0  0  0  0  0  0  0  0
   -0.5190    4.2950    0.3150 C   0  0  1  0  0  0  0  0  0  0  0  0
    0.6520    3.6220    0.4020 C   0  0  0  0  0  0  0  0  0  0  0  0
    0.8690    2.3040    0.1830 C   0  0  2  0  0  0  0  0  0  0  0  0
   -0.5610    5.8140    0.3530 C   0  0  2  0  0  0  0  0  0  0  0  0
   -2.5910    3.8950   -0.0310 H   0  0  0  0  0  0  0  0  0  0  0  0
   -2.3540    1.6010   -0.3240 H   0  0  0  0  0  0  0  0  0  0  0  0
    2.3750    1.9970    0.2390 C   0  0  0  0  0  0  0  0  0  0  0  0
    1.5400    4.1750    0.6430 H   0  0  0  0  0  0  0  0  0  0  0  0
   -1.7460    6.4700    0.1500 C   0  0  0  0  0  0  0  0  0  0  0  0
   -1.8210    7.8000   -0.0340 C   0  0  0  0  0  0  0  0  0  0  0  0
   -0.7170    8.5740   -0.0150 C   0  0  1  0  0  0  0  0  0  0  0  0
    0.4370    7.9530    0.3070 C   0  0  0  0  0  0  0  0  0  0  0  0
    0.5360    6.6310    0.4810 C   0  0  2  0  0  0  0  0  0  0  0  0
   -0.7090   10.0330   -0.4330 C   0  0  2  0  0  0  0  0  0  0  0  0
   -2.7920    8.2410   -0.2560 H   0  0  0  0  0  0  0  0  0  0  0  0
   -2.6870    5.9310    0.0760 H   0  0  0  0  0  0  0  0  0  0  0  0
    2.7270    6.2300   -0.3170 C   0  0  0  0  0  0  0  0  0  0  0  0
    1.3490    8.5340    0.3990 H   0  0  0  0  0  0  0  0  0  0  0  0
    0.5110   10.8720   -0.0680 C   0  0  0  0  0  0  0  0  0  0  0  0
    0.0800   12.2520   -0.5140 C   0  0  1  0  0  0  0  0  0  0  0  0
   -1.3960   12.2590   -0.3340 N   0  0  0  0  0  0  0  0  0  0  0  0
   -1.7810   10.9000    0.0700 N   0  0  0  0  0  0  0  0  0  0  0  0
    0.7730   13.3710    0.2450 C   0  0  0  0  0  0  0  0  0  0  0  0
   -2.6650   10.6360   -0.3720 H   0  0  0  0  0  0  0  0  0  0  0  0
   -1.6310   12.9500    0.3910 H   0  0  0  0  0  0  0  0  0  0  0  0
    1.4160   10.5550   -0.5990 H   0  0  0  0  0  0  0  0  0  0  0  0
    0.2970   12.3960   -1.5790 H   0  0  0  0  0  0  0  0  0  0  0  0
    0.7170   10.8390    1.0110 H   0  0  0  0  0  0  0  0  0  0  0  0
   -0.7790   10.0130   -1.5340 H   0  0  0  0  0  0  0  0  0  0  0  0
    3.6790    5.8170    0.0230 H   0  0  0  0  0  0  0  0  0  0  0  0
    2.3640    5.6150   -1.1480 H   0  0  0  0  0  0  0  0  0  0  0  0
    2.8980    7.2560   -0.6500 H   0  0  0  0  0  0  0  0  0  0  0  0
    1.8180    6.1700    0.7900 O   0  0  0  0  0  0  0  0  0  0  0  0
    2.9990    0.6580    0.5820 C   0  0  0  0  0  0  0  0  0  0  0  0
    2.4040    0.0820    1.2900 H   0  0  0  0  0  0  0  0  0  0  0  0
    3.9860    0.8400    1.0310 H   0  0  0  0  0  0  0  0  0  0  0  0
    3.2010    0.0720   -0.3190 H   0  0  0  0  0  0  0  0  0  0  0  0
    2.8190    2.6720    0.9900 H   0  0  0  0  0  0  0  0  0  0  0  0
    2.7970    2.3280   -0.7210 H   0  0  0  0  0  0  0  0  0  0  0  0
   -0.0380   14.4130    0.5360 O   0  0  0  0  0  0  0  0  0  0  0  0
    1.9580   13.4190    0.5280 O   0  0  0  0  0  0  0  0  0  0  0  0
    0.5620   15.0810    0.9280 H   0  0  0  0  0  0  0  0  0  0  0  0
  1  5  1  0  0  0  0
  2  1  1  0  0  0  0
  3  2  2  0  0  0  0
  4  2  1  6  0  0  0
  4 10  5  0  0  0  0
  6  4  5  0  0  0  0
  6  7  5  0  0  0  0
  6 13  1  0  0  0  0
  7 12  1  0  0  0  0
  8  7  5  6  0  0  0
  8 11  1  0  0  0  0
  9  8  5  0  0  0  0
  9 15  1  0  0  0  0
 10  9  5  0  0  0  0
 10 14  1  6  0  0  0
 11 16  5  6  0  0  0
 11 20  5  0  0  0  0
 14 45  1  0  0  0  0
 14 46  1  0  0  0  0
 16 17  5  0  0  0  0
 16 23  1  0  0  0  0
 17 22  1  0  0  0  0
 18 17  5  6  0  0  0
 18 21  1  0  0  0  0
 19 18  5  0  0  0  0
 19 25  1  0  0  0  0
 20 19  5  0  0  0  0
 20 40  1  6  0  0  0
 21 29  1  0  0  0  0
 21 36  1  6  0  0  0
 24 37  1  0  0  0  0
 24 38  1  0  0  0  0
 24 39  1  0  0  0  0
 24 40  1  0  0  0  0
 26 21  1  0  0  0  0
 26 33  1  0  0  0  0
 26 35  1  0  0  0  0
 27 26  1  0  0  0  0
 27 34  1  6  0  0  0
 28 27  1  0  0  0  0
 29 28  1  0  0  0  0
 30 27  1  0  0  0  0
 30 48  2  0  0  0  0
 31 29  1  0  0  0  0
 32 28  1  0  0  0  0
 41 42  1  0  0  0  0
 41 43  1  0  0  0  0
 41 44  1  0  0  0  0
 41 14  1  0  0  0  0
 47 30  1  0  0  0  0
 49 47  1  0  0  0  0
M  END
