
 OpenBabel11042013063D

 39 41  0  0  1  0  0  0  0  0999 V2000
    1.8390   -0.6400    0.0420 O   0  0  0  0  0  0  0  0  0  0  0  0
    0.6190   -0.0950    0.1690 C   0  0  0  0  0  0  0  0  0  0  0  0
   -0.3810   -0.8030    0.1790 O   0  0  0  0  0  0  0  0  0  0  0  0
    0.5610    1.4060    0.2170 C   0  0  2  0  0  0  0  0  0  0  0  0
    2.5710    0.0030    0.0320 H   0  0  0  0  0  0  0  0  0  0  0  0
   -0.6950    1.8690    0.1780 C   0  0  0  0  0  0  0  0  0  0  0  0
   -0.9950    3.1820    0.1060 C   0  0  1  0  0  0  0  0  0  0  0  0
    0.0220    4.1020    0.0750 C   0  0  1  0  0  0  0  0  0  0  0  0
    1.2900    3.6260    0.1890 C   0  0  0  0  0  0  0  0  0  0  0  0
    1.5680    2.3090    0.2590 C   0  0  2  0  0  0  0  0  0  0  0  0
   -0.1000    5.5920   -0.2700 C   0  0  2  0  0  0  0  0  0  0  0  0
   -2.8700    3.4660   -0.0410 Br  0  0  0  0  0  0  0  0  0  0  0  0
   -1.5300    1.1600    0.1530 H   0  0  0  0  0  0  0  0  0  0  0  0
    3.2460    1.8660    0.3240 Cl  0  0  0  0  0  0  0  0  0  0  0  0
    2.1150    4.3420    0.1720 H   0  0  0  0  0  0  0  0  0  0  0  0
    0.6330    6.6160    0.5020 O   0  0  0  0  0  0  0  0  0  0  0  0
   -1.3060    7.6080   -0.3230 C   0  0  0  0  0  0  0  0  0  0  0  0
   -1.4950    6.1420   -0.3220 C   0  0  0  0  0  0  0  0  0  0  0  0
    0.4710    9.2800    0.2950 C   0  0  2  0  0  0  0  0  0  0  0  0
   -2.0570    5.8270   -1.2020 H   0  0  0  0  0  0  0  0  0  0  0  0
   -1.7110    8.0970   -1.2130 H   0  0  0  0  0  0  0  0  0  0  0  0
   -1.8650    7.9370    0.5600 H   0  0  0  0  0  0  0  0  0  0  0  0
   -2.0350    5.9050    0.6020 H   0  0  0  0  0  0  0  0  0  0  0  0
    0.6690    7.7860   -1.1640 H   0  0  0  0  0  0  0  0  0  0  0  0
    0.1950    7.8340   -0.1700 C   0  0  1  0  0  0  0  0  0  0  0  0
    0.3230    5.6520   -1.2860 H   0  0  0  0  0  0  0  0  0  0  0  0
   -0.5950   10.1090    0.4500 C   0  0  0  0  0  0  0  0  0  0  0  0
   -0.4880   11.4350    0.4710 C   0  0  0  0  0  0  0  0  0  0  0  0
    0.7170   12.0110    0.3630 C   0  0  1  0  0  0  0  0  0  0  0  0
    1.8170   11.2190    0.3110 C   0  0  0  0  0  0  0  0  0  0  0  0
    1.6940    9.8710    0.2720 C   0  0  0  0  0  0  0  0  0  0  0  0
    0.7540   13.4830    0.2320 C   0  0  0  0  0  0  0  0  0  0  0  0
   -1.4130   12.0100    0.5020 H   0  0  0  0  0  0  0  0  0  0  0  0
   -1.6240    9.7820    0.4580 H   0  0  0  0  0  0  0  0  0  0  0  0
    2.5910    9.2650    0.1440 H   0  0  0  0  0  0  0  0  0  0  0  0
    2.8000   11.6780    0.2280 H   0  0  0  0  0  0  0  0  0  0  0  0
   -0.4800   14.0480    0.1950 O   0  0  0  0  0  0  0  0  0  0  0  0
    1.7560   14.1760    0.0920 O   0  0  0  0  0  0  0  0  0  0  0  0
   -0.3340   15.0050    0.0320 H   0  0  0  0  0  0  0  0  0  0  0  0
  1  5  1  0  0  0  0
  2  1  1  0  0  0  0
  3  2  2  0  0  0  0
  4  2  1  6  0  0  0
  4 10  5  0  0  0  0
  6  4  5  0  0  0  0
  6  7  5  0  0  0  0
  6 13  1  0  0  0  0
  7 12  1  6  0  0  0
  8  7  5  0  0  0  0
  8  9  5  6  0  0  0
  8 11  1  0  0  0  0
  9 15  1  0  0  0  0
 10  9  5  0  0  0  0
 10 14  1  6  0  0  0
 11 18  1  0  0  0  0
 11 26  1  6  0  0  0
 16 11  1  0  0  0  0
 17 25  1  0  0  0  0
 17 22  1  0  0  0  0
 18 17  1  0  0  0  0
 18 23  1  0  0  0  0
 19 25  1  0  0  0  0
 19 27  5  6  0  0  0
 19 31  5  0  0  0  0
 20 18  1  0  0  0  0
 21 17  1  0  0  0  0
 25 16  1  0  0  0  0
 25 24  1  6  0  0  0
 27 28  5  0  0  0  0
 27 34  1  0  0  0  0
 28 33  1  0  0  0  0
 29 28  5  0  0  0  0
 29 32  1  6  0  0  0
 30 29  5  0  0  0  0
 30 36  1  0  0  0  0
 31 30  5  0  0  0  0
 31 35  1  0  0  0  0
 32 38  2  0  0  0  0
 37 32  1  0  0  0  0
 39 37  1  0  0  0  0
M  END
