32

O         -0.09400        0.20200       -0.14000
C         -1.17900        1.00500       -0.05500
O         -2.30900        0.54100        0.01000
C         -0.88400        2.47800       -0.01200
H          0.73300        0.74300       -0.20100
C         -1.94200        3.30000        0.15400
C         -1.76700        4.63300        0.25000
C         -0.53400        5.19200        0.18300
C          0.55200        4.36900       -0.00900
C          0.34600        3.03000       -0.10300
C         -0.39200        6.62700        0.40800
H         -2.65000        5.24600        0.41000
H         -2.94900        2.89100        0.23200
N          1.52200        2.17600       -0.29900
C          2.44800        6.01500       -0.08100
C         -1.11100        7.68100       -0.02300
C         -0.53200        9.00300        0.15100
H         -2.03300        7.57400       -0.58500
H          0.45700        6.86300        1.03900
H          2.00700        2.56800       -1.12200
H          2.21400        2.50500        0.39400
C         -1.13700       10.18700       -0.00800
C         -0.29700       11.39500        0.09800
H         -2.18900       10.31000       -0.22200
H          0.53800        9.01000        0.37300
H          2.41300        6.41400        0.93500
H          1.98800        6.68200       -0.81500
H          3.50900        5.92900       -0.33700
O          1.89800        4.71400       -0.12300
O         -1.04200       12.50300       -0.02300
O          0.90800       11.44300        0.25300
H         -0.38500       13.22900        0.04300
