
 OpenBabel11042013063D

 31 32  0  0  1  0  0  0  0  0999 V2000
    0.7160   -0.4920    0.0440 O   0  0  0  0  0  0  0  0  0  0  0  0
   -0.3230    0.3570   -0.0010 C   0  0  0  0  0  0  0  0  0  0  0  0
   -1.4600   -0.0940   -0.0420 O   0  0  0  0  0  0  0  0  0  0  0  0
   -0.0290    1.8470    0.0100 C   0  0  2  0  0  0  0  0  0  0  0  0
    1.5940   -0.0750    0.0630 H   0  0  0  0  0  0  0  0  0  0  0  0
   -1.1520    2.5750   -0.0080 C   0  0  0  0  0  0  0  0  0  0  0  0
   -1.1940    3.9230   -0.0330 C   0  0  1  0  0  0  0  0  0  0  0  0
   -0.0280    4.6720    0.0140 C   0  0  1  0  0  0  0  0  0  0  0  0
    1.1480    3.9080    0.0560 C   0  0  2  0  0  0  0  0  0  0  0  0
    1.1400    2.5230    0.0240 C   0  0  2  0  0  0  0  0  0  0  0  0
   -0.0940    6.2690    0.0170 C   0  0  2  0  0  0  0  0  0  0  0  0
   -2.6380    4.3940   -0.1430 C   0  0  0  0  0  0  0  0  0  0  0  0
   -2.1050    2.0330   -0.0120 H   0  0  0  0  0  0  0  0  0  0  0  0
    2.7830    1.5040   -0.0220 Br  0  0  0  0  0  0  0  0  0  0  0  0
    2.9270    4.6560    0.1890 Br  0  0  0  0  0  0  0  0  0  0  0  0
   -3.3540    3.5830   -0.3330 H   0  0  0  0  0  0  0  0  0  0  0  0
   -2.9760    4.8390    0.8000 H   0  0  0  0  0  0  0  0  0  0  0  0
   -2.7700    5.0540   -1.0040 H   0  0  0  0  0  0  0  0  0  0  0  0
   -1.2560    6.9890    0.1020 C   0  0  0  0  0  0  0  0  0  0  0  0
   -1.3440    8.3360    0.0830 C   0  0  0  0  0  0  0  0  0  0  0  0
   -0.2360    9.0860    0.0140 C   0  0  2  0  0  0  0  0  0  0  0  0
    0.9410    8.4490   -0.0540 C   0  0  0  0  0  0  0  0  0  0  0  0
    0.9860    7.1010   -0.0700 C   0  0  0  0  0  0  0  0  0  0  0  0
   -0.2470   10.5720    0.0130 C   0  0  0  0  0  0  0  0  0  0  0  0
   -2.3240    8.8070    0.1300 H   0  0  0  0  0  0  0  0  0  0  0  0
   -2.2280    6.5520    0.1960 H   0  0  0  0  0  0  0  0  0  0  0  0
    1.9960    6.7710   -0.1640 H   0  0  0  0  0  0  0  0  0  0  0  0
    1.8710    9.0130   -0.1050 H   0  0  0  0  0  0  0  0  0  0  0  0
   -1.4870   11.0940    0.0580 O   0  0  0  0  0  0  0  0  0  0  0  0
    0.7310   11.3000   -0.0240 O   0  0  0  0  0  0  0  0  0  0  0  0
   -1.3290   12.0610    0.0570 H   0  0  0  0  0  0  0  0  0  0  0  0
  1  5  1  0  0  0  0
  2  1  1  0  0  0  0
  3  2  2  0  0  0  0
  4  2  1  6  0  0  0
  4 10  5  0  0  0  0
  6  4  5  0  0  0  0
  6  7  5  0  0  0  0
  6 13  1  0  0  0  0
  7 12  1  6  0  0  0
  8  7  5  0  0  0  0
  8 11  1  6  0  0  0
  9  8  5  0  0  0  0
  9 15  1  1  0  0  0
 10  9  5  0  0  0  0
 10 14  1  6  0  0  0
 11 19  5  6  0  0  0
 11 23  5  0  0  0  0
 12 16  1  0  0  0  0
 12 17  1  0  0  0  0
 12 18  1  0  0  0  0
 19 20  5  0  0  0  0
 19 26  1  0  0  0  0
 20 25  1  0  0  0  0
 21 20  5  0  0  0  0
 21 24  1  1  0  0  0
 22 21  5  0  0  0  0
 22 28  1  0  0  0  0
 23 22  5  0  0  0  0
 23 27  1  0  0  0  0
 24 30  2  0  0  0  0
 29 24  1  0  0  0  0
 31 29  1  0  0  0  0
M  END
