31

O          0.71600       -0.49200        0.04400
C         -0.32300        0.35700       -0.00100
O         -1.46000       -0.09400       -0.04200
C         -0.02900        1.84700        0.01000
H          1.59400       -0.07500        0.06300
C         -1.15200        2.57500       -0.00800
C         -1.19400        3.92300       -0.03300
C         -0.02800        4.67200        0.01400
C          1.14800        3.90800        0.05600
C          1.14000        2.52300        0.02400
C         -0.09400        6.26900        0.01700
C         -2.63800        4.39400       -0.14300
H         -2.10500        2.03300       -0.01200
Br         2.78300        1.50400       -0.02200
Br         2.92700        4.65600        0.18900
H         -3.35400        3.58300       -0.33300
H         -2.97600        4.83900        0.80000
H         -2.77000        5.05400       -1.00400
C         -1.25600        6.98900        0.10200
C         -1.34400        8.33600        0.08300
C         -0.23600        9.08600        0.01400
C          0.94100        8.44900       -0.05400
C          0.98600        7.10100       -0.07000
C         -0.24700       10.57200        0.01300
H         -2.32400        8.80700        0.13000
H         -2.22800        6.55200        0.19600
H          1.99600        6.77100       -0.16400
H          1.87100        9.01300       -0.10500
O         -1.48700       11.09400        0.05800
O          0.73100       11.30000       -0.02400
H         -1.32900       12.06100        0.05700
