32

O          0.67500        0.82900       -0.84700
C          0.27900        1.41700        0.30100
O         -0.14200        0.75800        1.23500
C          0.40600        2.88900        0.22300
H          0.54500       -0.12400       -0.66100
C         -0.77100        3.56800        0.23500
C         -0.73300        4.91800        0.14600
C          0.43200        5.59900        0.02800
C          1.57500        4.87400        0.03100
C          1.60300        3.52200        0.13200
C          0.55100        7.06000       -0.05400
F         -1.89600        5.60500        0.19900
C         -3.06600        3.28400       -0.42500
C          3.01300        2.92500        0.17500
H          2.52700        5.40100       -0.05000
C         -0.43500        7.96800       -0.13300
C         -0.10900        9.40100       -0.15700
H         -1.48700        7.72100       -0.15800
H          1.57400        7.44200       -0.03600
C          3.27100        1.46700        0.52900
H          2.67100        1.12700        1.37700
H          3.10300        0.81200       -0.33100
H          4.32300        1.34200        0.81000
H          3.57700        3.50500        0.91700
H          3.49400        3.11900       -0.79500
H         -3.57600        4.12700        0.04900
H         -2.76200        3.52700       -1.44700
H         -3.78000        2.45600       -0.47100
O         -1.95900        2.84900        0.35600
O         -1.23600       10.13000       -0.12400
O          0.99600        9.90900       -0.19100
H         -0.92100       11.05700       -0.11400
