
 OpenBabel11042013063D

 32 32  0  0  1  0  0  0  0  0999 V2000
    0.6750    0.8290   -0.8470 O   0  0  0  0  0  0  0  0  0  0  0  0
    0.2790    1.4170    0.3010 C   0  0  0  0  0  0  0  0  0  0  0  0
   -0.1420    0.7580    1.2350 O   0  0  0  0  0  0  0  0  0  0  0  0
    0.4060    2.8890    0.2230 C   0  0  2  0  0  0  0  0  0  0  0  0
    0.5450   -0.1240   -0.6610 H   0  0  0  0  0  0  0  0  0  0  0  0
   -0.7710    3.5680    0.2350 C   0  0  2  0  0  0  0  0  0  0  0  0
   -0.7330    4.9180    0.1460 C   0  0  2  0  0  0  0  0  0  0  0  0
    0.4320    5.5990    0.0280 C   0  0  2  0  0  0  0  0  0  0  0  0
    1.5750    4.8740    0.0310 C   0  0  0  0  0  0  0  0  0  0  0  0
    1.6030    3.5220    0.1320 C   0  0  1  0  0  0  0  0  0  0  0  0
    0.5510    7.0600   -0.0540 C   0  0  0  0  0  0  0  0  0  0  0  0
   -1.8960    5.6050    0.1990 F   0  0  0  0  0  0  0  0  0  0  0  0
   -3.0660    3.2840   -0.4250 C   0  0  0  0  0  0  0  0  0  0  0  0
    3.0130    2.9250    0.1750 C   0  0  0  0  0  0  0  0  0  0  0  0
    2.5270    5.4010   -0.0500 H   0  0  0  0  0  0  0  0  0  0  0  0
   -0.4350    7.9680   -0.1330 C   0  0  0  0  0  0  0  0  0  0  0  0
   -0.1090    9.4010   -0.1570 C   0  0  0  0  0  0  0  0  0  0  0  0
   -1.4870    7.7210   -0.1580 H   0  0  0  0  0  0  0  0  0  0  0  0
    1.5740    7.4420   -0.0360 H   0  0  0  0  0  0  0  0  0  0  0  0
    3.2710    1.4670    0.5290 C   0  0  0  0  0  0  0  0  0  0  0  0
    2.6710    1.1270    1.3770 H   0  0  0  0  0  0  0  0  0  0  0  0
    3.1030    0.8120   -0.3310 H   0  0  0  0  0  0  0  0  0  0  0  0
    4.3230    1.3420    0.8100 H   0  0  0  0  0  0  0  0  0  0  0  0
    3.5770    3.5050    0.9170 H   0  0  0  0  0  0  0  0  0  0  0  0
    3.4940    3.1190   -0.7950 H   0  0  0  0  0  0  0  0  0  0  0  0
   -3.5760    4.1270    0.0490 H   0  0  0  0  0  0  0  0  0  0  0  0
   -2.7620    3.5270   -1.4470 H   0  0  0  0  0  0  0  0  0  0  0  0
   -3.7800    2.4560   -0.4710 H   0  0  0  0  0  0  0  0  0  0  0  0
   -1.9590    2.8490    0.3560 O   0  0  0  0  0  0  0  0  0  0  0  0
   -1.2360   10.1300   -0.1240 O   0  0  0  0  0  0  0  0  0  0  0  0
    0.9960    9.9090   -0.1910 O   0  0  0  0  0  0  0  0  0  0  0  0
   -0.9210   11.0570   -0.1140 H   0  0  0  0  0  0  0  0  0  0  0  0
  1  5  1  0  0  0  0
  2  1  1  0  0  0  0
  3  2  2  0  0  0  0
  4  2  1  6  0  0  0
  4 10  5  0  0  0  0
  6  4  5  0  0  0  0
  6  7  5  0  0  0  0
  6 29  1  1  0  0  0
  7 12  1  1  0  0  0
  8  7  5  0  0  0  0
  8 11  1  1  0  0  0
  9  8  5  0  0  0  0
  9 15  1  0  0  0  0
 10  9  5  0  0  0  0
 10 14  1  1  0  0  0
 11 19  1  0  0  0  0
 13 26  1  0  0  0  0
 13 27  1  0  0  0  0
 13 28  1  0  0  0  0
 13 29  1  0  0  0  0
 14 24  1  0  0  0  0
 14 25  1  0  0  0  0
 16 11  2  0  0  0  0
 16 18  1  0  0  0  0
 17 16  1  0  0  0  0
 17 31  2  0  0  0  0
 20 21  1  0  0  0  0
 20 22  1  0  0  0  0
 20 23  1  0  0  0  0
 20 14  1  0  0  0  0
 30 17  1  0  0  0  0
 32 30  1  0  0  0  0
M  END
