
 OpenBabel11042013063D

 34 35  0  0  1  0  0  0  0  0999 V2000
    1.3110   -0.1240   -0.0660 O   0  0  0  0  0  0  0  0  0  0  0  0
    0.2060    0.6560   -0.0950 C   0  0  0  0  0  0  0  0  0  0  0  0
   -0.8860    0.1680   -0.3480 O   0  0  0  0  0  0  0  0  0  0  0  0
    0.4500    2.1200    0.1370 C   0  0  2  0  0  0  0  0  0  0  0  0
    2.1300    0.2950    0.2440 H   0  0  0  0  0  0  0  0  0  0  0  0
   -0.5950    2.9080    0.5080 C   0  0  2  0  0  0  0  0  0  0  0  0
   -0.3950    4.2330    0.6470 C   0  0  0  0  0  0  0  0  0  0  0  0
    0.8040    4.8030    0.4180 C   0  0  1  0  0  0  0  0  0  0  0  0
    1.8410    4.0110    0.0830 C   0  0  0  0  0  0  0  0  0  0  0  0
    1.6660    2.6840   -0.0690 C   0  0  0  0  0  0  0  0  0  0  0  0
    0.9320    6.1630    0.5090 N   0  0  0  0  0  0  0  0  0  0  0  0
   -1.2230    4.8740    0.9370 H   0  0  0  0  0  0  0  0  0  0  0  0
   -2.8390    2.7510   -0.1610 C   0  0  0  0  0  0  0  0  0  0  0  0
    2.5320    2.1150   -0.3880 H   0  0  0  0  0  0  0  0  0  0  0  0
    2.8180    4.4580   -0.0920 H   0  0  0  0  0  0  0  0  0  0  0  0
   -3.1230    3.8040   -0.0530 H   0  0  0  0  0  0  0  0  0  0  0  0
   -2.5010    2.5530   -1.1840 H   0  0  0  0  0  0  0  0  0  0  0  0
   -3.7280    2.1430    0.0320 H   0  0  0  0  0  0  0  0  0  0  0  0
   -1.8460    2.3870    0.7990 O   0  0  0  0  0  0  0  0  0  0  0  0
    0.5380    6.7420   -0.5280 N   0  0  0  0  0  0  0  0  0  0  0  0
    0.3410    8.0900   -0.3800 C   0  0  2  0  0  0  0  0  0  0  0  0
   -0.9310    8.5370   -0.2530 C   0  0  0  0  0  0  0  0  0  0  0  0
   -1.2050    9.8450   -0.1090 C   0  0  0  0  0  0  0  0  0  0  0  0
   -0.1960   10.7380   -0.0930 C   0  0  1  0  0  0  0  0  0  0  0  0
    1.0800   10.3130   -0.2230 C   0  0  0  0  0  0  0  0  0  0  0  0
    1.3590    8.9980   -0.3740 C   0  0  2  0  0  0  0  0  0  0  0  0
   -0.4320   12.1960    0.0450 C   0  0  0  0  0  0  0  0  0  0  0  0
   -2.2400   10.1620   -0.0030 H   0  0  0  0  0  0  0  0  0  0  0  0
   -1.7500    7.8210   -0.2630 H   0  0  0  0  0  0  0  0  0  0  0  0
    3.1650    8.4780   -0.5740 Br  0  0  0  0  0  0  0  0  0  0  0  0
    1.8950   11.0340   -0.2080 H   0  0  0  0  0  0  0  0  0  0  0  0
   -1.7310   12.5310   -0.0610 O   0  0  0  0  0  0  0  0  0  0  0  0
    0.4220   13.0510    0.2070 O   0  0  0  0  0  0  0  0  0  0  0  0
   -1.7240   13.5070    0.0120 H   0  0  0  0  0  0  0  0  0  0  0  0
  1  5  1  0  0  0  0
  2  1  1  0  0  0  0
  3  2  2  0  0  0  0
  4  2  1  6  0  0  0
  4 10  5  0  0  0  0
  6  4  5  0  0  0  0
  6  7  5  0  0  0  0
  6 19  1  1  0  0  0
  7 12  1  0  0  0  0
  8  7  5  0  0  0  0
  8 11  1  6  0  0  0
  9  8  5  0  0  0  0
  9 15  1  0  0  0  0
 10  9  5  0  0  0  0
 10 14  1  0  0  0  0
 13 16  1  0  0  0  0
 13 17  1  0  0  0  0
 13 18  1  0  0  0  0
 13 19  1  0  0  0  0
 20 11  2  0  0  0  0
 21 20  1  6  0  0  0
 21 26  5  0  0  0  0
 22 21  5  0  0  0  0
 22 23  5  0  0  0  0
 22 29  1  0  0  0  0
 23 28  1  0  0  0  0
 24 23  5  0  0  0  0
 24 27  1  6  0  0  0
 25 24  5  0  0  0  0
 25 31  1  0  0  0  0
 26 25  5  0  0  0  0
 26 30  1  6  0  0  0
 27 33  2  0  0  0  0
 32 27  1  0  0  0  0
 34 32  1  0  0  0  0
M  END
