30

O          1.44900        0.58000       -0.04300
C          0.16300        0.95600        0.14300
O         -0.71600        0.10700        0.15800
C         -0.09100        2.43700        0.28500
H          2.11800        1.28500        0.05000
C         -1.34200        2.97800        0.13800
C         -1.46800        4.31900        0.31600
C         -0.42800        5.12700        0.60900
C          0.80200        4.57600        0.73400
C          0.94700        3.24700        0.58900
N         -0.59400        6.47800        0.81200
H         -2.43000        4.81200        0.23400
C         -2.56200        2.11500       -0.21000
F          2.19200        2.73700        0.75100
C          2.44000        6.04300       -0.06000
H          3.12500        5.38300       -0.59900
H          2.99600        6.91100        0.30500
H          1.67300        6.40200       -0.75400
O          1.90500        5.35500        1.07200
C         -3.93900        2.75100       -0.45300
H         -4.66700        2.34000        0.25500
H         -4.29400        2.49900       -1.45800
H         -3.98700        3.83500       -0.36600
H         -2.32500        1.54600       -1.11900
H         -2.70400        1.39200        0.60400
N         -0.78100        7.15200       -0.22800
C         -0.52400        8.47300        0.02700
O         -1.64700        9.21900        0.04400
O          0.56200        9.00500        0.19300
H         -1.29900       10.11000        0.24300
