
 OpenBabel11042013063D

 30 30  0  0  1  0  0  0  0  0999 V2000
    1.4490    0.5800   -0.0430 O   0  0  0  0  0  0  0  0  0  0  0  0
    0.1630    0.9560    0.1430 C   0  0  0  0  0  0  0  0  0  0  0  0
   -0.7160    0.1070    0.1580 O   0  0  0  0  0  0  0  0  0  0  0  0
   -0.0910    2.4370    0.2850 C   0  0  1  0  0  0  0  0  0  0  0  0
    2.1180    1.2850    0.0500 H   0  0  0  0  0  0  0  0  0  0  0  0
   -1.3420    2.9780    0.1380 C   0  0  2  0  0  0  0  0  0  0  0  0
   -1.4680    4.3190    0.3160 C   0  0  0  0  0  0  0  0  0  0  0  0
   -0.4280    5.1270    0.6090 C   0  0  2  0  0  0  0  0  0  0  0  0
    0.8020    4.5760    0.7340 C   0  0  2  0  0  0  0  0  0  0  0  0
    0.9470    3.2470    0.5890 C   0  0  2  0  0  0  0  0  0  0  0  0
   -0.5940    6.4780    0.8120 N   0  0  0  0  0  0  0  0  0  0  0  0
   -2.4300    4.8120    0.2340 H   0  0  0  0  0  0  0  0  0  0  0  0
   -2.5620    2.1150   -0.2100 C   0  0  0  0  0  0  0  0  0  0  0  0
    2.1920    2.7370    0.7510 F   0  0  0  0  0  0  0  0  0  0  0  0
    2.4400    6.0430   -0.0600 C   0  0  0  0  0  0  0  0  0  0  0  0
    3.1250    5.3830   -0.5990 H   0  0  0  0  0  0  0  0  0  0  0  0
    2.9960    6.9110    0.3050 H   0  0  0  0  0  0  0  0  0  0  0  0
    1.6730    6.4020   -0.7540 H   0  0  0  0  0  0  0  0  0  0  0  0
    1.9050    5.3550    1.0720 O   0  0  0  0  0  0  0  0  0  0  0  0
   -3.9390    2.7510   -0.4530 C   0  0  0  0  0  0  0  0  0  0  0  0
   -4.6670    2.3400    0.2550 H   0  0  0  0  0  0  0  0  0  0  0  0
   -4.2940    2.4990   -1.4580 H   0  0  0  0  0  0  0  0  0  0  0  0
   -3.9870    3.8350   -0.3660 H   0  0  0  0  0  0  0  0  0  0  0  0
   -2.3250    1.5460   -1.1190 H   0  0  0  0  0  0  0  0  0  0  0  0
   -2.7040    1.3920    0.6040 H   0  0  0  0  0  0  0  0  0  0  0  0
   -0.7810    7.1520   -0.2280 N   0  0  0  0  0  0  0  0  0  0  0  0
   -0.5240    8.4730    0.0270 C   0  0  0  0  0  0  0  0  0  0  0  0
   -1.6470    9.2190    0.0440 O   0  0  0  0  0  0  0  0  0  0  0  0
    0.5620    9.0050    0.1930 O   0  0  0  0  0  0  0  0  0  0  0  0
   -1.2990   10.1100    0.2430 H   0  0  0  0  0  0  0  0  0  0  0  0
  1  5  1  0  0  0  0
  2  1  1  0  0  0  0
  3  2  2  0  0  0  0
  4  2  1  1  0  0  0
  4 10  5  0  0  0  0
  6  4  5  0  0  0  0
  6  7  5  0  0  0  0
  6 13  1  1  0  0  0
  7 12  1  0  0  0  0
  8  7  5  0  0  0  0
  8 11  1  1  0  0  0
  9  8  5  0  0  0  0
  9 19  1  1  0  0  0
 10  9  5  0  0  0  0
 10 14  1  6  0  0  0
 13 24  1  0  0  0  0
 13 25  1  0  0  0  0
 15 16  1  0  0  0  0
 15 17  1  0  0  0  0
 15 18  1  0  0  0  0
 15 19  1  0  0  0  0
 20 21  1  0  0  0  0
 20 22  1  0  0  0  0
 20 23  1  0  0  0  0
 20 13  1  0  0  0  0
 26 11  2  0  0  0  0
 27 26  1  0  0  0  0
 27 29  2  0  0  0  0
 28 27  1  0  0  0  0
 30 28  1  0  0  0  0
M  END
