
 OpenBabel11042013063D

 28 29  0  0  1  0  0  0  0  0999 V2000
    1.1940   -0.3590   -0.1810 O   0  0  0  0  0  0  0  0  0  0  0  0
    0.0300    0.3180   -0.1940 C   0  0  0  0  0  0  0  0  0  0  0  0
   -1.0400   -0.2740   -0.2420 O   0  0  0  0  0  0  0  0  0  0  0  0
    0.1330    1.8110   -0.1160 C   0  0  1  0  0  0  0  0  0  0  0  0
    2.0160    0.1450   -0.0870 H   0  0  0  0  0  0  0  0  0  0  0  0
   -1.0380    2.4720    0.0000 C   0  0  0  0  0  0  0  0  0  0  0  0
   -1.0750    3.8120    0.1080 C   0  0  2  0  0  0  0  0  0  0  0  0
    0.0640    4.5720    0.0950 C   0  0  2  0  0  0  0  0  0  0  0  0
    1.2370    3.8890   -0.0280 C   0  0  2  0  0  0  0  0  0  0  0  0
    1.2650    2.5400   -0.1370 C   0  0  0  0  0  0  0  0  0  0  0  0
   -0.0800    6.0870    0.2830 C   0  0  1  0  0  0  0  0  0  0  0  0
   -2.6740    4.4890    0.3120 Cl  0  0  0  0  0  0  0  0  0  0  0  0
   -1.9740    1.9130    0.0220 H   0  0  0  0  0  0  0  0  0  0  0  0
    2.2330    2.0620   -0.2330 H   0  0  0  0  0  0  0  0  0  0  0  0
    2.8010    4.6450   -0.0140 Cl  0  0  0  0  0  0  0  0  0  0  0  0
    1.0390    7.1140    0.3180 C   0  0  0  0  0  0  0  0  0  0  0  0
    0.2400    8.2710    0.0160 N   0  0  0  0  0  0  0  0  0  0  0  0
   -0.8200    7.9450   -0.7780 N   0  0  0  0  0  0  0  0  0  0  0  0
   -0.9460    6.6910   -0.7750 N   0  0  0  0  0  0  0  0  0  0  0  0
    0.6770    9.5380    0.2000 N   0  0  0  0  0  0  0  0  0  0  0  0
    1.7660    7.0240   -0.4940 H   0  0  0  0  0  0  0  0  0  0  0  0
    1.5270    7.2050    1.2920 H   0  0  0  0  0  0  0  0  0  0  0  0
   -0.6150    6.2090    1.2400 H   0  0  0  0  0  0  0  0  0  0  0  0
   -0.2400   10.3570   -0.0250 N   0  0  0  0  0  0  0  0  0  0  0  0
    0.1630   11.6570    0.0840 C   0  0  0  0  0  0  0  0  0  0  0  0
   -0.8940   12.4960    0.0270 O   0  0  0  0  0  0  0  0  0  0  0  0
    1.2910   12.1180    0.2020 O   0  0  0  0  0  0  0  0  0  0  0  0
   -0.4770   13.3770    0.0800 H   0  0  0  0  0  0  0  0  0  0  0  0
  1  5  1  0  0  0  0
  2  1  1  0  0  0  0
  3  2  2  0  0  0  0
  4  2  1  1  0  0  0
  4 10  5  0  0  0  0
  6  4  5  0  0  0  0
  6  7  5  0  0  0  0
  6 13  1  0  0  0  0
  7 12  1  1  0  0  0
  8  7  5  0  0  0  0
  8 11  1  1  0  0  0
  9  8  5  0  0  0  0
  9 15  1  1  0  0  0
 10  9  5  0  0  0  0
 10 14  1  0  0  0  0
 11 19  1  0  0  0  0
 11 23  1  1  0  0  0
 16 11  1  0  0  0  0
 16 21  1  0  0  0  0
 16 22  1  0  0  0  0
 17 16  1  0  0  0  0
 18 17  1  0  0  0  0
 19 18  2  0  0  0  0
 20 17  1  0  0  0  0
 24 20  2  0  0  0  0
 25 24  1  0  0  0  0
 25 27  2  0  0  0  0
 26 25  1  0  0  0  0
 28 26  1  0  0  0  0
M  END
