31

O          0.12400        0.17400        0.35400
C         -0.94000        0.98600        0.18900
O         -2.08100        0.54300        0.20200
C         -0.62600        2.44700        0.06400
H          0.96500        0.63700        0.17200
C         -1.68300        3.26900        0.24600
C         -1.58600        4.60400        0.09900
C         -0.35400        5.13600       -0.16200
C          0.72100        4.31100       -0.31900
C          0.59100        2.95900       -0.24000
N         -0.15700        6.49100       -0.37600
C         -2.82500        5.50300        0.13800
H         -2.64600        2.82300        0.49000
C          2.87600        2.24400        0.11200
O          1.95900        4.87600       -0.62300
H          1.91900        5.85000       -0.59800
H          3.46700        1.34700       -0.11100
H          2.74600        2.29800        1.19500
H          3.43300        3.09600       -0.27600
O          1.61900        2.06500       -0.53100
N         -0.39900        7.25700        0.58500
C         -0.17800        8.55700        0.21000
C         -4.20200        4.83700        0.04100
H         -4.90900        5.51200       -0.45400
H         -4.19600        3.90900       -0.53800
H         -4.59600        4.62500        1.04000
H         -2.76600        6.19200       -0.71700
H         -2.80900        6.11500        1.04800
O         -1.30700        9.29500        0.25500
O          0.87700        9.06700       -0.14000
H         -1.00700       10.17100       -0.06200
