25

O          1.43800        0.32600        0.06600
C          0.23100        0.92500        0.04500
O         -0.75100        0.19900        0.01100
C          0.18900        2.45400        0.04900
H          2.21200        0.91400        0.06400
C         -1.02900        3.10200       -0.00000
C         -1.08700        4.48100       -0.02900
C          0.05500        5.23300        0.01100
C          1.22700        4.55700        0.06100
C          1.31000        3.21600        0.07800
C          0.24500        6.70900       -0.01200
Br        -2.80000        5.32100       -0.16300
C         -2.32300        2.27500       -0.02900
Cl         2.95200        2.62500        0.12000
H          2.16400        5.11500        0.08500
C         -0.61800        7.73800       -0.01600
C         -0.14100        9.13500       -0.03000
H         -1.68900        7.65500       -0.00600
H          1.29700        7.01700       -0.01700
H         -3.24800        2.82500        0.14500
H         -2.43100        1.79100       -1.00700
H         -2.34500        1.53300        0.77600
O         -1.19500        9.96700       -0.01500
O          1.00800        9.52200       -0.04700
H         -0.81300       10.86900       -0.01800
