
 OpenBabel11042013063D

 45 47  0  0  1  0  0  0  0  0999 V2000
    0.6250    0.1930   -0.0270 O   0  0  0  0  0  0  0  0  0  0  0  0
   -0.3910    1.0700   -0.1910 C   0  0  0  0  0  0  0  0  0  0  0  0
   -1.5440    0.6830   -0.3320 O   0  0  0  0  0  0  0  0  0  0  0  0
    0.0020    2.5210   -0.1500 C   0  0  1  0  0  0  0  0  0  0  0  0
    1.4890    0.6470    0.0770 H   0  0  0  0  0  0  0  0  0  0  0  0
   -1.0090    3.4140   -0.2510 C   0  0  0  0  0  0  0  0  0  0  0  0
   -0.7700    4.7400   -0.1700 C   0  0  0  0  0  0  0  0  0  0  0  0
    0.4810    5.2120    0.0190 C   0  0  2  0  0  0  0  0  0  0  0  0
    1.4900    4.3100    0.0950 C   0  0  0  0  0  0  0  0  0  0  0  0
    1.2690    2.9790    0.0030 C   0  0  1  0  0  0  0  0  0  0  0  0
    0.7380    6.6240    0.3150 C   0  0  0  0  0  0  0  0  0  0  0  0
   -1.6210    5.4160   -0.2090 H   0  0  0  0  0  0  0  0  0  0  0  0
   -2.0360    3.0730   -0.3740 H   0  0  0  0  0  0  0  0  0  0  0  0
    2.3350    2.0930    0.0980 O   0  0  0  0  0  0  0  0  0  0  0  0
    2.5040    4.6720    0.2530 H   0  0  0  0  0  0  0  0  0  0  0  0
    0.1810    7.7020   -0.2680 C   0  0  0  0  0  0  0  0  0  0  0  0
    0.1100    9.0670    0.3990 C   0  0  1  0  0  0  0  0  0  0  0  0
   -0.4300    7.5650   -1.1590 H   0  0  0  0  0  0  0  0  0  0  0  0
    1.3580    6.7790    1.1980 H   0  0  0  0  0  0  0  0  0  0  0  0
    0.9800   10.0630   -0.1670 O   0  0  0  0  0  0  0  0  0  0  0  0
   -1.2110   11.0150   -0.0630 C   0  0  0  0  0  0  0  0  0  0  0  0
   -1.3200    9.5710    0.3080 C   0  0  0  0  0  0  0  0  0  0  0  0
    0.7240   12.5680    0.2200 C   0  0  1  0  0  0  0  0  0  0  0  0
   -1.8380    9.4440    1.2670 H   0  0  0  0  0  0  0  0  0  0  0  0
   -1.4980   11.6070    0.8130 H   0  0  0  0  0  0  0  0  0  0  0  0
   -1.8990   11.2930   -0.8680 H   0  0  0  0  0  0  0  0  0  0  0  0
   -1.9290    9.0460   -0.4370 H   0  0  0  0  0  0  0  0  0  0  0  0
    0.3100   11.3870   -1.5690 H   0  0  0  0  0  0  0  0  0  0  0  0
    0.2400   11.2640   -0.4820 C   0  0  1  0  0  0  0  0  0  0  0  0
    0.3940    8.9740    1.4550 H   0  0  0  0  0  0  0  0  0  0  0  0
    2.0750   13.1910   -0.1160 C   0  0  0  0  0  0  0  0  0  0  0  0
    1.9210   14.6190    0.4350 C   0  0  2  0  0  0  0  0  0  0  0  0
    0.4560   14.8540    0.5020 N   0  0  0  0  0  0  0  0  0  0  0  0
   -0.1540   13.7120   -0.1140 N   0  0  0  0  0  0  0  0  0  0  0  0
    2.6010   15.7230   -0.3770 C   0  0  0  0  0  0  0  0  0  0  0  0
   -1.1030   13.5660    0.2380 H   0  0  0  0  0  0  0  0  0  0  0  0
    0.2480   15.7250   -0.0100 H   0  0  0  0  0  0  0  0  0  0  0  0
    2.9020   12.6710    0.3790 H   0  0  0  0  0  0  0  0  0  0  0  0
    2.3070   14.6900    1.4590 H   0  0  0  0  0  0  0  0  0  0  0  0
    2.2670   13.2000   -1.1960 H   0  0  0  0  0  0  0  0  0  0  0  0
    0.7050   12.3870    1.3060 H   0  0  0  0  0  0  0  0  0  0  0  0
    3.1930    2.5590    0.1690 H   0  0  0  0  0  0  0  0  0  0  0  0
    1.8220   16.8220   -0.5480 O   0  0  0  0  0  0  0  0  0  0  0  0
    3.7510   15.7240   -0.7840 O   0  0  0  0  0  0  0  0  0  0  0  0
    2.4020   17.4720   -0.9970 H   0  0  0  0  0  0  0  0  0  0  0  0
  1  5  1  0  0  0  0
  2  1  1  0  0  0  0
  3  2  2  0  0  0  0
  4  2  1  1  0  0  0
  4 10  5  0  0  0  0
  6  4  5  0  0  0  0
  6  7  5  0  0  0  0
  6 13  1  0  0  0  0
  7 12  1  0  0  0  0
  8  7  5  0  0  0  0
  8 11  1  1  0  0  0
  9  8  5  0  0  0  0
  9 15  1  0  0  0  0
 10  9  5  0  0  0  0
 10 14  1  1  0  0  0
 11 19  1  0  0  0  0
 14 42  1  0  0  0  0
 16 11  2  0  0  0  0
 16 18  1  0  0  0  0
 17 16  1  0  0  0  0
 17 22  1  0  0  0  0
 17 30  1  1  0  0  0
 20 17  1  0  0  0  0
 21 29  1  0  0  0  0
 21 26  1  0  0  0  0
 22 21  1  0  0  0  0
 22 27  1  0  0  0  0
 23 29  1  0  0  0  0
 23 34  1  0  0  0  0
 23 41  1  1  0  0  0
 24 22  1  0  0  0  0
 25 21  1  0  0  0  0
 29 20  1  0  0  0  0
 29 28  1  6  0  0  0
 31 23  1  0  0  0  0
 31 38  1  0  0  0  0
 31 40  1  0  0  0  0
 32 31  1  0  0  0  0
 32 39  1  1  0  0  0
 33 32  1  0  0  0  0
 34 33  1  0  0  0  0
 35 32  1  0  0  0  0
 35 44  2  0  0  0  0
 36 34  1  0  0  0  0
 37 33  1  0  0  0  0
 43 35  1  0  0  0  0
 45 43  1  0  0  0  0
M  END
