45

O          0.62500        0.19300       -0.02700
C         -0.39100        1.07000       -0.19100
O         -1.54400        0.68300       -0.33200
C          0.00200        2.52100       -0.15000
H          1.48900        0.64700        0.07700
C         -1.00900        3.41400       -0.25100
C         -0.77000        4.74000       -0.17000
C          0.48100        5.21200        0.01900
C          1.49000        4.31000        0.09500
C          1.26900        2.97900        0.00300
C          0.73800        6.62400        0.31500
H         -1.62100        5.41600       -0.20900
H         -2.03600        3.07300       -0.37400
O          2.33500        2.09300        0.09800
H          2.50400        4.67200        0.25300
C          0.18100        7.70200       -0.26800
C          0.11000        9.06700        0.39900
H         -0.43000        7.56500       -1.15900
H          1.35800        6.77900        1.19800
O          0.98000       10.06300       -0.16700
C         -1.21100       11.01500       -0.06300
C         -1.32000        9.57100        0.30800
C          0.72400       12.56800        0.22000
H         -1.83800        9.44400        1.26700
H         -1.49800       11.60700        0.81300
H         -1.89900       11.29300       -0.86800
H         -1.92900        9.04600       -0.43700
H          0.31000       11.38700       -1.56900
C          0.24000       11.26400       -0.48200
H          0.39400        8.97400        1.45500
C          2.07500       13.19100       -0.11600
C          1.92100       14.61900        0.43500
N          0.45600       14.85400        0.50200
N         -0.15400       13.71200       -0.11400
C          2.60100       15.72300       -0.37700
H         -1.10300       13.56600        0.23800
H          0.24800       15.72500       -0.01000
H          2.90200       12.67100        0.37900
H          2.30700       14.69000        1.45900
H          2.26700       13.20000       -1.19600
H          0.70500       12.38700        1.30600
H          3.19300        2.55900        0.16900
O          1.82200       16.82200       -0.54800
O          3.75100       15.72400       -0.78400
H          2.40200       17.47200       -0.99700
