43

O          1.19300        0.72400        0.06700
C          0.04500        1.43500        0.12200
O         -1.03500        0.85800        0.13400
C          0.18800        2.93700        0.12300
H          2.02000        1.22600        0.02800
C         -0.96900        3.62600        0.10500
C         -0.97900        4.97000        0.04000
C          0.16100        5.70700       -0.01600
C          1.32400        5.00700        0.05400
C          1.33700        3.64900        0.11900
C          0.10000        7.24700       -0.25700
H         -1.95700        5.43800       -0.00900
H         -1.92700        3.09600        0.11400
H          2.30600        3.16500        0.13900
H          2.27600        5.53600        0.01400
C          1.17000        8.32300        0.11900
C          0.43200        9.64000       -0.31300
N         -0.99400        9.30500       -0.03000
N         -1.07100        7.90300        0.34200
C          0.76200       11.15700       -0.04100
H         -1.93300        7.49300       -0.02100
H         -1.32100        9.86800        0.75800
H          2.09400        8.17000       -0.45000
H          0.51900        9.61300       -1.41200
H          1.40300        8.30600        1.19100
H         -0.01300        7.30000       -1.35300
C         -0.24900       12.07000       -0.01600
C         -0.05700       13.39900        0.06700
C          1.18100       13.93600        0.12800
C          2.20400       13.04000        0.15000
C          2.00600       11.69500        0.07600
C          1.45600       15.39300        0.12600
F         -1.15600       14.18300        0.05000
H         -1.28500       11.76400       -0.11400
H          2.88300       11.05300        0.06000
H          3.22700       13.41000        0.19800
C          0.58300       16.42100        0.08700
C          1.06300       17.81900        0.03000
H         -0.49200       16.30600        0.07100
H          2.51600       15.65600        0.11700
O          0.02900       18.67800        0.00900
O          2.21800       18.20200       -0.00100
H          0.45200       19.56000       -0.03100
