
 OpenBabel11042013063D

 43 45  0  0  1  0  0  0  0  0999 V2000
    1.1930    0.7240    0.0670 O   0  0  0  0  0  0  0  0  0  0  0  0
    0.0450    1.4350    0.1220 C   0  0  0  0  0  0  0  0  0  0  0  0
   -1.0350    0.8580    0.1340 O   0  0  0  0  0  0  0  0  0  0  0  0
    0.1880    2.9370    0.1230 C   0  0  2  0  0  0  0  0  0  0  0  0
    2.0200    1.2260    0.0280 H   0  0  0  0  0  0  0  0  0  0  0  0
   -0.9690    3.6260    0.1050 C   0  0  0  0  0  0  0  0  0  0  0  0
   -0.9790    4.9700    0.0400 C   0  0  0  0  0  0  0  0  0  0  0  0
    0.1610    5.7070   -0.0160 C   0  0  1  0  0  0  0  0  0  0  0  0
    1.3240    5.0070    0.0540 C   0  0  0  0  0  0  0  0  0  0  0  0
    1.3370    3.6490    0.1190 C   0  0  0  0  0  0  0  0  0  0  0  0
    0.1000    7.2470   -0.2570 C   0  0  2  0  0  0  0  0  0  0  0  0
   -1.9570    5.4380   -0.0090 H   0  0  0  0  0  0  0  0  0  0  0  0
   -1.9270    3.0960    0.1140 H   0  0  0  0  0  0  0  0  0  0  0  0
    2.3060    3.1650    0.1390 H   0  0  0  0  0  0  0  0  0  0  0  0
    2.2760    5.5360    0.0140 H   0  0  0  0  0  0  0  0  0  0  0  0
    1.1700    8.3230    0.1190 C   0  0  0  0  0  0  0  0  0  0  0  0
    0.4320    9.6400   -0.3130 C   0  0  1  0  0  0  0  0  0  0  0  0
   -0.9940    9.3050   -0.0300 N   0  0  0  0  0  0  0  0  0  0  0  0
   -1.0710    7.9030    0.3420 N   0  0  0  0  0  0  0  0  0  0  0  0
    0.7620   11.1570   -0.0410 C   0  0  2  0  0  0  0  0  0  0  0  0
   -1.9330    7.4930   -0.0210 H   0  0  0  0  0  0  0  0  0  0  0  0
   -1.3210    9.8680    0.7580 H   0  0  0  0  0  0  0  0  0  0  0  0
    2.0940    8.1700   -0.4500 H   0  0  0  0  0  0  0  0  0  0  0  0
    0.5190    9.6130   -1.4120 H   0  0  0  0  0  0  0  0  0  0  0  0
    1.4030    8.3060    1.1910 H   0  0  0  0  0  0  0  0  0  0  0  0
   -0.0130    7.3000   -1.3530 H   0  0  0  0  0  0  0  0  0  0  0  0
   -0.2490   12.0700   -0.0160 C   0  0  0  0  0  0  0  0  0  0  0  0
   -0.0570   13.3990    0.0670 C   0  0  1  0  0  0  0  0  0  0  0  0
    1.1810   13.9360    0.1280 C   0  0  1  0  0  0  0  0  0  0  0  0
    2.2040   13.0400    0.1500 C   0  0  0  0  0  0  0  0  0  0  0  0
    2.0060   11.6950    0.0760 C   0  0  0  0  0  0  0  0  0  0  0  0
    1.4560   15.3930    0.1260 C   0  0  0  0  0  0  0  0  0  0  0  0
   -1.1560   14.1830    0.0500 F   0  0  0  0  0  0  0  0  0  0  0  0
   -1.2850   11.7640   -0.1140 H   0  0  0  0  0  0  0  0  0  0  0  0
    2.8830   11.0530    0.0600 H   0  0  0  0  0  0  0  0  0  0  0  0
    3.2270   13.4100    0.1980 H   0  0  0  0  0  0  0  0  0  0  0  0
    0.5830   16.4210    0.0870 C   0  0  0  0  0  0  0  0  0  0  0  0
    1.0630   17.8190    0.0300 C   0  0  0  0  0  0  0  0  0  0  0  0
   -0.4920   16.3060    0.0710 H   0  0  0  0  0  0  0  0  0  0  0  0
    2.5160   15.6560    0.1170 H   0  0  0  0  0  0  0  0  0  0  0  0
    0.0290   18.6780    0.0090 O   0  0  0  0  0  0  0  0  0  0  0  0
    2.2180   18.2020   -0.0010 O   0  0  0  0  0  0  0  0  0  0  0  0
    0.4520   19.5600   -0.0310 H   0  0  0  0  0  0  0  0  0  0  0  0
  1  5  1  0  0  0  0
  2  1  1  0  0  0  0
  3  2  2  0  0  0  0
  4  2  1  6  0  0  0
  4 10  5  0  0  0  0
  6  4  5  0  0  0  0
  6  7  5  0  0  0  0
  6 13  1  0  0  0  0
  7 12  1  0  0  0  0
  8  7  5  6  0  0  0
  8 11  1  0  0  0  0
  9  8  5  0  0  0  0
  9 15  1  0  0  0  0
 10  9  5  0  0  0  0
 10 14  1  0  0  0  0
 11 19  1  0  0  0  0
 11 26  1  6  0  0  0
 16 11  1  0  0  0  0
 16 23  1  0  0  0  0
 16 25  1  0  0  0  0
 17 16  1  0  0  0  0
 17 24  1  6  0  0  0
 18 17  1  0  0  0  0
 19 18  1  0  0  0  0
 20 17  1  0  0  0  0
 20 27  5  6  0  0  0
 20 31  5  0  0  0  0
 21 19  1  0  0  0  0
 22 18  1  0  0  0  0
 27 28  5  0  0  0  0
 27 34  1  0  0  0  0
 28 33  1  6  0  0  0
 29 28  5  0  0  0  0
 29 32  1  6  0  0  0
 30 29  5  0  0  0  0
 30 36  1  0  0  0  0
 31 30  5  0  0  0  0
 31 35  1  0  0  0  0
 32 40  1  0  0  0  0
 37 32  2  0  0  0  0
 37 39  1  0  0  0  0
 38 37  1  0  0  0  0
 38 42  2  0  0  0  0
 41 38  1  0  0  0  0
 43 41  1  0  0  0  0
M  END
