
 OpenBabel11042013033D

 31 32  0  0  1  0  0  0  0  0999 V2000
    1.4950   -0.0700    0.1170 O   0  0  0  0  0  0  0  0  0  0  0  0
    0.3290    0.5130   -0.2420 C   0  0  0  0  0  0  0  0  0  0  0  0
   -0.6170   -0.1500   -0.6440 O   0  0  0  0  0  0  0  0  0  0  0  0
    0.2960    2.0060   -0.1050 C   0  0  2  0  0  0  0  0  0  0  0  0
    2.1250    0.5000    0.5920 H   0  0  0  0  0  0  0  0  0  0  0  0
   -0.8490    2.6530    0.2090 C   0  0  1  0  0  0  0  0  0  0  0  0
   -0.8510    4.0090    0.2990 C   0  0  1  0  0  0  0  0  0  0  0  0
    0.2720    4.7590    0.0380 C   0  0  1  0  0  0  0  0  0  0  0  0
    1.4100    4.0790   -0.3010 C   0  0  1  0  0  0  0  0  0  0  0  0
    1.4080    2.7250   -0.3520 C   0  0  0  0  0  0  0  0  0  0  0  0
    0.1650    6.2710    0.0380 C   0  0  1  0  0  0  0  0  0  0  0  0
   -2.0440    4.6480    0.6470 O   0  0  0  0  0  0  0  0  0  0  0  0
   -2.0550    1.9240    0.4420 N   0  0  0  0  0  0  0  0  0  0  0  0
    2.3260    2.2160   -0.6390 H   0  0  0  0  0  0  0  0  0  0  0  0
    3.0630    4.8780   -0.7890 Br  0  0  0  0  0  0  0  0  0  0  0  0
   -2.0970    0.9760    0.0580 H   0  0  0  0  0  0  0  0  0  0  0  0
   -2.9630    2.3570    0.5020 H   0  0  0  0  0  0  0  0  0  0  0  0
   -2.8100    4.1760    0.2880 H   0  0  0  0  0  0  0  0  0  0  0  0
   -0.9070    6.8870   -0.5220 C   0  0  0  0  0  0  0  0  0  0  0  0
   -1.0640    8.2210   -0.5160 C   0  0  0  0  0  0  0  0  0  0  0  0
   -0.1020    9.0060    0.0040 C   0  0  1  0  0  0  0  0  0  0  0  0
    0.9930    8.4320    0.5420 C   0  0  0  0  0  0  0  0  0  0  0  0
    1.1050    7.0870    0.5830 C   0  0  0  0  0  0  0  0  0  0  0  0
   -0.2140   10.4880   -0.0040 C   0  0  0  0  0  0  0  0  0  0  0  0
   -1.9690    8.6480   -0.9420 H   0  0  0  0  0  0  0  0  0  0  0  0
   -1.7090    6.3050   -0.9760 H   0  0  0  0  0  0  0  0  0  0  0  0
    1.9890    6.6850    1.0710 H   0  0  0  0  0  0  0  0  0  0  0  0
    1.7880    9.0530    0.9560 H   0  0  0  0  0  0  0  0  0  0  0  0
   -1.4660   10.9250   -0.2420 O   0  0  0  0  0  0  0  0  0  0  0  0
    0.6920   11.2810    0.1950 O   0  0  0  0  0  0  0  0  0  0  0  0
   -1.3860   11.9000   -0.1960 H   0  0  0  0  0  0  0  0  0  0  0  0
  1  5  1  0  0  0  0
  2  1  1  0  0  0  0
  3  2  2  0  0  0  0
  4  2  1  6  0  0  0
  4 10  5  0  0  0  0
  6  4  5  0  0  0  0
  6  7  5  0  0  0  0
  6 13  1  6  0  0  0
  7 12  1  6  0  0  0
  8  7  5  0  0  0  0
  8 11  1  6  0  0  0
  9  8  5  0  0  0  0
  9 15  1  6  0  0  0
 10  9  5  0  0  0  0
 10 14  1  0  0  0  0
 11 19  5  1  0  0  0
 11 23  5  0  0  0  0
 12 18  1  0  0  0  0
 13 16  1  0  0  0  0
 13 17  1  0  0  0  0
 19 20  5  0  0  0  0
 19 26  1  0  0  0  0
 20 25  1  0  0  0  0
 21 20  5  0  0  0  0
 21 24  1  6  0  0  0
 22 21  5  0  0  0  0
 22 28  1  0  0  0  0
 23 22  5  0  0  0  0
 23 27  1  0  0  0  0
 24 30  2  0  0  0  0
 29 24  1  0  0  0  0
 31 29  1  0  0  0  0
M  END
