44

O         -0.24200       -0.68500       -0.11800
C         -1.32100        0.12500       -0.09300
O         -2.45500       -0.33300       -0.14400
C         -1.02300        1.59500       -0.03700
H          0.59700       -0.18100       -0.10300
C         -2.11700        2.38900       -0.00300
C         -1.99300        3.72500       -0.04000
C         -0.77300        4.30300       -0.10700
C          0.31100        3.49700       -0.07900
C          0.22000        2.14700       -0.05300
C         -0.67600        5.80900       -0.25100
H         -2.89600        4.33500       -0.03800
H         -3.12000        1.96600        0.02900
C          2.63600        1.81400        0.18400
H          1.28300        3.96200       -0.11900
C          0.67600        6.49700       -0.14400
N          0.28100        7.71200        0.52100
N         -0.92200        7.55300        1.16500
N         -1.44500        6.47200        0.81400
C          0.78700        8.96600        0.24000
H          1.11800        6.66800       -1.13200
H          1.40000        5.97400        0.48700
H         -1.12300        6.08100       -1.22000
C          0.09300       10.08500        0.47400
C          0.36100       11.46800        0.16900
H         -0.88500        9.94400        0.93700
H          1.75900        8.96600       -0.24300
C         -0.73100       12.24400       -0.00900
C         -0.62600       13.57000       -0.17400
C          0.59000       14.14700       -0.15800
C          1.69900       13.38200       -0.02200
C          1.58300       12.04600        0.14900
C          0.72100       15.62000       -0.27200
H         -1.53400       14.15200       -0.29700
H         -1.72900       11.80900       -0.00100
H          2.48200       11.45500        0.30200
H          2.68400       13.84000       -0.01200
H          3.35100        1.12000       -0.26900
H          2.81000        1.83200        1.26400
H          2.84300        2.79200       -0.25500
O          1.32900        1.31000       -0.08800
O         -0.45500       16.26400       -0.12700
O          1.75800       16.24100       -0.42600
H         -0.21500       17.21100       -0.16300
