
 OpenBabel11042013063D

 44 46  0  0  1  0  0  0  0  0999 V2000
   -0.2420   -0.6850   -0.1180 O   0  0  0  0  0  0  0  0  0  0  0  0
   -1.3210    0.1250   -0.0930 C   0  0  0  0  0  0  0  0  0  0  0  0
   -2.4550   -0.3330   -0.1440 O   0  0  0  0  0  0  0  0  0  0  0  0
   -1.0230    1.5950   -0.0370 C   0  0  2  0  0  0  0  0  0  0  0  0
    0.5970   -0.1810   -0.1030 H   0  0  0  0  0  0  0  0  0  0  0  0
   -2.1170    2.3890   -0.0030 C   0  0  0  0  0  0  0  0  0  0  0  0
   -1.9930    3.7250   -0.0400 C   0  0  0  0  0  0  0  0  0  0  0  0
   -0.7730    4.3030   -0.1070 C   0  0  1  0  0  0  0  0  0  0  0  0
    0.3110    3.4970   -0.0790 C   0  0  0  0  0  0  0  0  0  0  0  0
    0.2200    2.1470   -0.0530 C   0  0  2  0  0  0  0  0  0  0  0  0
   -0.6760    5.8090   -0.2510 C   0  0  2  0  0  0  0  0  0  0  0  0
   -2.8960    4.3350   -0.0380 H   0  0  0  0  0  0  0  0  0  0  0  0
   -3.1200    1.9660    0.0290 H   0  0  0  0  0  0  0  0  0  0  0  0
    2.6360    1.8140    0.1840 C   0  0  0  0  0  0  0  0  0  0  0  0
    1.2830    3.9620   -0.1190 H   0  0  0  0  0  0  0  0  0  0  0  0
    0.6760    6.4970   -0.1440 C   0  0  0  0  0  0  0  0  0  0  0  0
    0.2810    7.7120    0.5210 N   0  0  0  0  0  0  0  0  0  0  0  0
   -0.9220    7.5530    1.1650 N   0  0  0  0  0  0  0  0  0  0  0  0
   -1.4450    6.4720    0.8140 N   0  0  0  0  0  0  0  0  0  0  0  0
    0.7870    8.9660    0.2400 C   0  0  0  0  0  0  0  0  0  0  0  0
    1.1180    6.6680   -1.1320 H   0  0  0  0  0  0  0  0  0  0  0  0
    1.4000    5.9740    0.4870 H   0  0  0  0  0  0  0  0  0  0  0  0
   -1.1230    6.0810   -1.2200 H   0  0  0  0  0  0  0  0  0  0  0  0
    0.0930   10.0850    0.4740 C   0  0  0  0  0  0  0  0  0  0  0  0
    0.3610   11.4680    0.1690 C   0  0  1  0  0  0  0  0  0  0  0  0
   -0.8850    9.9440    0.9370 H   0  0  0  0  0  0  0  0  0  0  0  0
    1.7590    8.9660   -0.2430 H   0  0  0  0  0  0  0  0  0  0  0  0
   -0.7310   12.2440   -0.0090 C   0  0  0  0  0  0  0  0  0  0  0  0
   -0.6260   13.5700   -0.1740 C   0  0  0  0  0  0  0  0  0  0  0  0
    0.5900   14.1470   -0.1580 C   0  0  2  0  0  0  0  0  0  0  0  0
    1.6990   13.3820   -0.0220 C   0  0  0  0  0  0  0  0  0  0  0  0
    1.5830   12.0460    0.1490 C   0  0  0  0  0  0  0  0  0  0  0  0
    0.7210   15.6200   -0.2720 C   0  0  0  0  0  0  0  0  0  0  0  0
   -1.5340   14.1520   -0.2970 H   0  0  0  0  0  0  0  0  0  0  0  0
   -1.7290   11.8090   -0.0010 H   0  0  0  0  0  0  0  0  0  0  0  0
    2.4820   11.4550    0.3020 H   0  0  0  0  0  0  0  0  0  0  0  0
    2.6840   13.8400   -0.0120 H   0  0  0  0  0  0  0  0  0  0  0  0
    3.3510    1.1200   -0.2690 H   0  0  0  0  0  0  0  0  0  0  0  0
    2.8100    1.8320    1.2640 H   0  0  0  0  0  0  0  0  0  0  0  0
    2.8430    2.7920   -0.2550 H   0  0  0  0  0  0  0  0  0  0  0  0
    1.3290    1.3100   -0.0880 O   0  0  0  0  0  0  0  0  0  0  0  0
   -0.4550   16.2640   -0.1270 O   0  0  0  0  0  0  0  0  0  0  0  0
    1.7580   16.2410   -0.4260 O   0  0  0  0  0  0  0  0  0  0  0  0
   -0.2150   17.2110   -0.1630 H   0  0  0  0  0  0  0  0  0  0  0  0
  1  5  1  0  0  0  0
  2  1  1  0  0  0  0
  3  2  2  0  0  0  0
  4  2  1  6  0  0  0
  4 10  5  0  0  0  0
  6  4  5  0  0  0  0
  6  7  5  0  0  0  0
  6 13  1  0  0  0  0
  7 12  1  0  0  0  0
  8  7  5  6  0  0  0
  8 11  1  0  0  0  0
  9  8  5  0  0  0  0
  9 15  1  0  0  0  0
 10  9  5  0  0  0  0
 10 41  1  6  0  0  0
 11 19  1  0  0  0  0
 11 23  1  6  0  0  0
 14 38  1  0  0  0  0
 14 39  1  0  0  0  0
 14 40  1  0  0  0  0
 14 41  1  0  0  0  0
 16 11  1  0  0  0  0
 16 21  1  0  0  0  0
 16 22  1  0  0  0  0
 17 16  1  0  0  0  0
 18 17  1  0  0  0  0
 19 18  2  0  0  0  0
 20 17  1  0  0  0  0
 20 27  1  0  0  0  0
 24 20  2  0  0  0  0
 24 26  1  0  0  0  0
 25 24  1  1  0  0  0
 25 32  5  0  0  0  0
 28 25  5  0  0  0  0
 28 29  5  0  0  0  0
 28 35  1  0  0  0  0
 29 34  1  0  0  0  0
 30 29  5  0  0  0  0
 30 33  1  1  0  0  0
 31 30  5  0  0  0  0
 31 37  1  0  0  0  0
 32 31  5  0  0  0  0
 32 36  1  0  0  0  0
 33 43  2  0  0  0  0
 42 33  1  0  0  0  0
 44 42  1  0  0  0  0
M  END
