38

O          0.83500        0.79400        0.03400
C         -0.28100        1.55100        0.09300
O         -1.39400        1.04400        0.09700
C         -0.04500        3.03000        0.18300
H          1.64900        1.33800       -0.01900
C         -1.13400        3.76600        0.46000
C         -1.04200        5.10200        0.55100
C          0.12100        5.78200        0.34800
C          1.22000        5.01500        0.08400
C          1.13900        3.65600        0.00300
C         -0.03900        7.31900        0.43300
H         -1.96500        5.63700        0.77900
H         -2.10600        3.29600        0.61000
O          2.27700        2.88700       -0.27400
Cl         2.79400        5.70800       -0.18200
C          1.05900        8.41800        0.42500
C          0.58400        9.45700       -0.60200
N         -0.84800        9.16200       -0.76200
N         -0.92200        7.74300       -0.68000
C          0.73600       10.95400       -0.34800
H         -1.87900        7.41400       -0.54200
H         -1.36400        9.62800       -0.00200
H          2.05100        8.08000        0.13800
H          1.08700        9.23600       -1.55400
H          1.14300        8.86000        1.42500
H         -0.58200        7.49900        1.37600
H          3.04900        3.46300       -0.44800
C          2.08400       11.54700       -0.06400
N          1.62100       12.76000        0.57700
N          0.39700       12.57200        1.16800
N         -0.05200       11.44400        0.81600
C          2.08000       14.01600        0.26800
H          2.66300       10.98300        0.67400
H          2.68400       11.74500       -0.95500
H          0.32300       11.46700       -1.23200
O          1.30400       15.02100        0.72800
O          3.06700       14.27900       -0.40400
H          1.72400       15.82600        0.36500
