
 OpenBabel11042013063D

 26 26  0  0  1  0  0  0  0  0999 V2000
    1.2630    0.1450   -0.1360 O   0  0  0  0  0  0  0  0  0  0  0  0
    0.0900    0.7990    0.0080 C   0  0  0  0  0  0  0  0  0  0  0  0
   -0.9650    0.1880    0.0990 O   0  0  0  0  0  0  0  0  0  0  0  0
    0.1770    2.2950    0.0330 C   0  0  1  0  0  0  0  0  0  0  0  0
    2.0410    0.6780   -0.3690 H   0  0  0  0  0  0  0  0  0  0  0  0
   -0.9700    2.9820   -0.1210 C   0  0  0  0  0  0  0  0  0  0  0  0
   -0.9970    4.3320   -0.0850 C   0  0  2  0  0  0  0  0  0  0  0  0
    0.1490    5.0690    0.0570 C   0  0  1  0  0  0  0  0  0  0  0  0
    1.3070    4.3490    0.2500 C   0  0  2  0  0  0  0  0  0  0  0  0
    1.3040    2.9960    0.2530 C   0  0  0  0  0  0  0  0  0  0  0  0
    0.2380    6.5600   -0.0450 C   0  0  0  0  0  0  0  0  0  0  0  0
   -2.3020    4.9180   -0.1630 N   0  0  0  0  0  0  0  0  0  0  0  0
   -1.8970    2.4240   -0.2610 H   0  0  0  0  0  0  0  0  0  0  0  0
    2.2400    2.4780    0.4420 H   0  0  0  0  0  0  0  0  0  0  0  0
    3.0160    5.1300    0.5830 Br  0  0  0  0  0  0  0  0  0  0  0  0
   -0.6940    7.5320   -0.0060 C   0  0  0  0  0  0  0  0  0  0  0  0
   -0.3630    8.9240   -0.0760 C   0  0  0  0  0  0  0  0  0  0  0  0
   -1.7480    7.3380    0.1040 H   0  0  0  0  0  0  0  0  0  0  0  0
    1.2450    6.9360   -0.2190 H   0  0  0  0  0  0  0  0  0  0  0  0
   -2.4390    5.6150    0.5620 H   0  0  0  0  0  0  0  0  0  0  0  0
   -3.0710    4.2530   -0.0910 H   0  0  0  0  0  0  0  0  0  0  0  0
   -0.1880   10.1150   -0.0760 C   0  0  0  0  0  0  0  0  0  0  0  0
   -0.0570   11.5440   -0.0270 C   0  0  0  0  0  0  0  0  0  0  0  0
   -1.2350   12.1980   -0.0320 O   0  0  0  0  0  0  0  0  0  0  0  0
    1.0120   12.1260    0.0380 O   0  0  0  0  0  0  0  0  0  0  0  0
   -0.9800   13.1440    0.0290 H   0  0  0  0  0  0  0  0  0  0  0  0
  1  5  1  0  0  0  0
  2  1  1  0  0  0  0
  3  2  2  0  0  0  0
  4  2  1  1  0  0  0
  4 10  5  0  0  0  0
  6  4  5  0  0  0  0
  6  7  5  0  0  0  0
  6 13  1  0  0  0  0
  7 12  1  1  0  0  0
  8  7  5  0  0  0  0
  8 11  1  6  0  0  0
  9  8  5  0  0  0  0
  9 15  1  1  0  0  0
 10  9  5  0  0  0  0
 10 14  1  0  0  0  0
 11 19  1  0  0  0  0
 12 20  1  0  0  0  0
 12 21  1  0  0  0  0
 16 11  2  0  0  0  0
 16 18  1  0  0  0  0
 17 16  1  0  0  0  0
 22 17  3  0  0  0  0
 23 22  1  0  0  0  0
 23 25  2  0  0  0  0
 24 23  1  0  0  0  0
 26 24  1  0  0  0  0
M  END
