31

O          1.31300        0.50600        0.00400
C          0.17400        1.22200        0.03000
O         -0.91000        0.65200        0.01000
C          0.30600        2.71900        0.08600
H          2.13900        1.02300        0.01900
C         -0.87900        3.38100        0.13700
C         -0.95300        4.73200        0.19400
C          0.19400        5.45900        0.21000
C          1.37500        4.80500        0.15300
C          1.44500        3.45900        0.09300
C          0.22700        6.89900        0.24300
Br        -2.66700        5.52700        0.22600
H         -1.80900        2.81100        0.12300
Cl         3.04200        2.77900        0.01600
H          2.29500        5.38700        0.14600
C          0.28200        8.09500        0.12200
C          0.24400        9.49900       -0.30800
C          1.39900       10.41800        0.05800
C          0.83400       11.76300       -0.40600
N         -0.64400       11.62300       -0.24900
N         -0.86700       10.27200        0.25400
C          1.34100       13.03300        0.27400
H         -1.75700        9.88800       -0.07200
H         -0.97800       12.34800        0.39900
H          2.32000       10.15700       -0.47500
H          1.04300       11.89400       -1.47500
H          1.62100       10.41300        1.13400
H          0.14200        9.47900       -1.40400
O          0.39000       14.00000        0.34500
O          2.48600       13.27500        0.61800
H          0.86100       14.81200        0.62500
