50

O          1.64700       -0.12300       -0.06300
C          0.50300        0.42500        0.40600
O         -0.40400       -0.28800        0.80700
C          0.44100        1.92700        0.33000
H          2.24600        0.48500       -0.53000
C         -0.76000        2.56700        0.23100
C         -0.74600        3.91300        0.09700
C          0.37900        4.65800        0.02100
C          1.55000        4.01200        0.19000
C          1.58200        2.67200        0.35500
C          0.26800        6.13000       -0.38100
H         -1.69700        4.41600       -0.00600
C         -2.10900        1.83100        0.21000
H          2.55500        2.21000        0.47700
H          2.48500        4.56900        0.15200
O          1.15000        7.10900        0.22400
C         -0.83400        8.24200       -0.32400
C         -1.10800        6.76800       -0.24200
C          1.18700        9.62600        0.23100
H         -1.55600        6.54700        0.73600
H         -1.24100        8.73000        0.57100
H         -1.31000        8.70400       -1.19800
H         -1.80200        6.43700       -1.02100
H          1.04200        8.32000       -1.43200
C          0.69200        8.34500       -0.39100
H          0.53100        6.12100       -1.45400
C         -3.37900        2.66500        0.00300
H         -3.55000        3.34500        0.84600
H         -3.33100        3.25800       -0.92000
H         -4.25700        2.01500       -0.07800
H         -2.24200        1.29800        1.16000
H         -2.09000        1.09100       -0.60100
C          0.61800       10.80500       -0.10900
C          0.81200       12.14400        0.53200
H         -0.16200       10.79200       -0.87100
H          1.98000        9.56800        0.96900
C          2.00200       12.96600        0.08400
C          1.61900       14.34900        0.58100
N          0.13400       14.38400        0.53600
N         -0.29300       13.04900        0.16100
C          2.23800       15.49600       -0.21500
H         -1.14500       12.77600        0.65800
H         -0.15500       15.08800       -0.15800
H          2.93600       12.61900        0.53700
H          1.91900       14.48500        1.62700
H          2.13000       12.94900       -1.00900
H          0.81800       12.02500        1.62300
O          1.38200       16.51600       -0.46700
O          3.40800       15.58500       -0.55100
H          1.94800       17.21100       -0.86600
