
 OpenBabel11042013063D

 37 38  0  0  1  0  0  0  0  0999 V2000
    1.7640   -0.5180   -0.0810 O   0  0  0  0  0  0  0  0  0  0  0  0
    0.5930    0.1340    0.0500 C   0  0  0  0  0  0  0  0  0  0  0  0
   -0.4410   -0.5050    0.2070 O   0  0  0  0  0  0  0  0  0  0  0  0
    0.5840    1.6370   -0.0020 C   0  0  1  0  0  0  0  0  0  0  0  0
    2.6100   -0.0690   -0.2580 H   0  0  0  0  0  0  0  0  0  0  0  0
   -0.6120    2.1990   -0.3030 C   0  0  0  0  0  0  0  0  0  0  0  0
   -0.7920    3.5410   -0.3720 C   0  0  1  0  0  0  0  0  0  0  0  0
    0.2480    4.3810   -0.0840 C   0  0  1  0  0  0  0  0  0  0  0  0
    1.4370    3.7970    0.2240 C   0  0  0  0  0  0  0  0  0  0  0  0
    1.6310    2.4590    0.2330 C   0  0  2  0  0  0  0  0  0  0  0  0
    0.1890    5.8840   -0.1010 C   0  0  1  0  0  0  0  0  0  0  0  0
   -3.0920    4.0240    0.0430 C   0  0  0  0  0  0  0  0  0  0  0  0
   -1.4630    1.5580   -0.5350 H   0  0  0  0  0  0  0  0  0  0  0  0
    2.9550    1.9980    0.4570 C   0  0  0  0  0  0  0  0  0  0  0  0
    2.2980    4.4120    0.4680 H   0  0  0  0  0  0  0  0  0  0  0  0
    4.0170    1.5420    0.5020 N   0  0  0  0  0  0  0  0  0  0  0  0
   -0.9240    6.5890    0.2060 C   0  0  0  0  0  0  0  0  0  0  0  0
   -0.9500    7.9370    0.2260 C   0  0  0  0  0  0  0  0  0  0  0  0
    0.1600    8.6580   -0.0400 C   0  0  2  0  0  0  0  0  0  0  0  0
    1.2850    7.9710   -0.3310 C   0  0  0  0  0  0  0  0  0  0  0  0
    1.2930    6.6250   -0.3830 C   0  0  0  0  0  0  0  0  0  0  0  0
    0.2200   10.1130    0.0190 C   0  0  0  0  0  0  0  0  0  0  0  0
   -1.8880    8.4230    0.4800 H   0  0  0  0  0  0  0  0  0  0  0  0
   -1.8500    6.1020    0.4680 H   0  0  0  0  0  0  0  0  0  0  0  0
    2.2370    6.1640   -0.6470 H   0  0  0  0  0  0  0  0  0  0  0  0
    2.2170    8.4950   -0.5330 H   0  0  0  0  0  0  0  0  0  0  0  0
   -0.8210   10.9630   -0.0010 C   0  0  0  0  0  0  0  0  0  0  0  0
   -0.5710   12.4100    0.0460 C   0  0  0  0  0  0  0  0  0  0  0  0
   -1.8520   10.6470   -0.0640 H   0  0  0  0  0  0  0  0  0  0  0  0
    1.2240   10.5350    0.0720 H   0  0  0  0  0  0  0  0  0  0  0  0
   -2.7740    4.1310    1.0850 H   0  0  0  0  0  0  0  0  0  0  0  0
   -3.7160    4.8890   -0.2110 H   0  0  0  0  0  0  0  0  0  0  0  0
   -3.6990    3.1250   -0.0830 H   0  0  0  0  0  0  0  0  0  0  0  0
   -1.9940    4.0290   -0.8700 O   0  0  0  0  0  0  0  0  0  0  0  0
   -1.7330   13.0770    0.0150 O   0  0  0  0  0  0  0  0  0  0  0  0
    0.5000   12.9740    0.1070 O   0  0  0  0  0  0  0  0  0  0  0  0
   -1.4630   14.0200    0.0500 H   0  0  0  0  0  0  0  0  0  0  0  0
  1  5  1  0  0  0  0
  2  1  1  0  0  0  0
  3  2  2  0  0  0  0
  4  2  1  1  0  0  0
  4 10  5  0  0  0  0
  6  4  5  0  0  0  0
  6  7  5  0  0  0  0
  6 13  1  0  0  0  0
  7 34  1  6  0  0  0
  8  7  5  0  0  0  0
  8  9  5  6  0  0  0
  8 11  1  0  0  0  0
  9 15  1  0  0  0  0
 10  9  5  0  0  0  0
 10 14  1  6  0  0  0
 11 17  5  1  0  0  0
 11 21  5  0  0  0  0
 12 31  1  0  0  0  0
 12 32  1  0  0  0  0
 12 33  1  0  0  0  0
 12 34  1  0  0  0  0
 14 16  3  0  0  0  0
 17 18  5  0  0  0  0
 17 24  1  0  0  0  0
 18 23  1  0  0  0  0
 19 18  5  0  0  0  0
 19 22  1  1  0  0  0
 20 19  5  0  0  0  0
 20 26  1  0  0  0  0
 21 20  5  0  0  0  0
 21 25  1  0  0  0  0
 22 30  1  0  0  0  0
 27 22  2  0  0  0  0
 27 29  1  0  0  0  0
 28 27  1  0  0  0  0
 28 36  2  0  0  0  0
 35 28  1  0  0  0  0
 37 35  1  0  0  0  0
M  END
