
 OpenBabel11042013073D

 49 52  0  0  1  0  0  0  0  0999 V2000
    1.3340   -0.9060    0.3180 O   0  0  0  0  0  0  0  0  0  0  0  0
    0.1830   -0.2040    0.2410 C   0  0  0  0  0  0  0  0  0  0  0  0
   -0.8470   -0.6380    0.7420 O   0  0  0  0  0  0  0  0  0  0  0  0
    0.2900    1.1560   -0.3800 C   0  0  1  0  0  0  0  0  0  0  0  0
    2.0760   -0.5560   -0.2000 H   0  0  0  0  0  0  0  0  0  0  0  0
   -0.8340    1.8230   -0.7470 C   0  0  2  0  0  0  0  0  0  0  0  0
   -0.7640    3.1220   -1.0930 C   0  0  0  0  0  0  0  0  0  0  0  0
    0.3770    3.8030   -0.8680 C   0  0  2  0  0  0  0  0  0  0  0  0
    1.5270    3.1240   -0.6730 C   0  0  0  0  0  0  0  0  0  0  0  0
    1.4820    1.8010   -0.4330 C   0  0  0  0  0  0  0  0  0  0  0  0
    0.2650    5.1300   -0.1610 C   0  0  1  0  0  0  0  0  0  0  0  0
   -1.6860    3.6530   -1.3130 H   0  0  0  0  0  0  0  0  0  0  0  0
   -2.1570    1.2940   -0.6250 N   0  0  0  0  0  0  0  0  0  0  0  0
    2.4180    1.3500   -0.1280 H   0  0  0  0  0  0  0  0  0  0  0  0
    2.4590    3.6640   -0.5050 H   0  0  0  0  0  0  0  0  0  0  0  0
   -2.8800    1.9860   -0.4360 H   0  0  0  0  0  0  0  0  0  0  0  0
   -2.2210    0.5370    0.0640 H   0  0  0  0  0  0  0  0  0  0  0  0
    0.7940    6.3800   -0.6680 O   0  0  0  0  0  0  0  0  0  0  0  0
   -1.1870    6.9180    0.3510 C   0  0  0  0  0  0  0  0  0  0  0  0
   -1.1050    5.4370    0.5040 C   0  0  0  0  0  0  0  0  0  0  0  0
    0.6200    8.6840    0.6000 C   0  0  1  0  0  0  0  0  0  0  0  0
   -2.0040    4.9700    0.1040 H   0  0  0  0  0  0  0  0  0  0  0  0
   -1.7890    7.3690    1.1430 H   0  0  0  0  0  0  0  0  0  0  0  0
   -1.6260    7.1660   -0.6280 H   0  0  0  0  0  0  0  0  0  0  0  0
   -1.0580    5.1660    1.5670 H   0  0  0  0  0  0  0  0  0  0  0  0
    0.7310    6.8160    1.3060 H   0  0  0  0  0  0  0  0  0  0  0  0
    0.3050    7.2370    0.3810 C   0  0  2  0  0  0  0  0  0  0  0  0
    0.9210    4.9450    0.7110 H   0  0  0  0  0  0  0  0  0  0  0  0
    1.5720    9.5830   -0.1330 C   0  0  0  0  0  0  0  0  0  0  0  0
    0.9080   10.8240    0.2240 N   0  0  0  0  0  0  0  0  0  0  0  0
   -0.3980   10.6240    0.5990 N   0  0  0  0  0  0  0  0  0  0  0  0
   -0.6470    9.4230    0.6140 N   0  0  0  0  0  0  0  0  0  0  0  0
    1.1600   12.1150   -0.1610 C   0  0  1  0  0  0  0  0  0  0  0  0
    1.5700    9.4760   -1.2200 H   0  0  0  0  0  0  0  0  0  0  0  0
    2.5890    9.5310    0.2710 H   0  0  0  0  0  0  0  0  0  0  0  0
    0.9430    8.7280    1.6530 H   0  0  0  0  0  0  0  0  0  0  0  0
    0.0840   12.8210   -0.5740 C   0  0  0  0  0  0  0  0  0  0  0  0
    0.1180   14.1430   -0.7000 C   0  0  0  0  0  0  0  0  0  0  0  0
    1.2610   14.7880   -0.4270 C   0  0  2  0  0  0  0  0  0  0  0  0
    2.3870   14.1000   -0.1400 C   0  0  0  0  0  0  0  0  0  0  0  0
    2.3530   12.7400   -0.0150 C   0  0  0  0  0  0  0  0  0  0  0  0
    1.1920   16.2620   -0.3600 C   0  0  0  0  0  0  0  0  0  0  0  0
   -0.8080   14.6510   -0.9470 H   0  0  0  0  0  0  0  0  0  0  0  0
   -0.8740   12.3390   -0.7430 H   0  0  0  0  0  0  0  0  0  0  0  0
    3.2250   12.2050    0.3290 H   0  0  0  0  0  0  0  0  0  0  0  0
    3.3110   14.6300    0.0770 H   0  0  0  0  0  0  0  0  0  0  0  0
   -0.0450   16.6880   -0.0040 O   0  0  0  0  0  0  0  0  0  0  0  0
    2.1220   17.0380   -0.4660 O   0  0  0  0  0  0  0  0  0  0  0  0
    0.0290   17.6520    0.1140 H   0  0  0  0  0  0  0  0  0  0  0  0
  1  5  1  0  0  0  0
  2  1  1  0  0  0  0
  3  2  2  0  0  0  0
  4  2  1  1  0  0  0
  4 10  5  0  0  0  0
  6  4  5  0  0  0  0
  6  7  5  0  0  0  0
  6 13  1  1  0  0  0
  7 12  1  0  0  0  0
  8  7  5  1  0  0  0
  8 11  1  0  0  0  0
  9  8  5  0  0  0  0
  9 15  1  0  0  0  0
 10  9  5  0  0  0  0
 10 14  1  0  0  0  0
 11 20  1  0  0  0  0
 11 28  1  1  0  0  0
 13 16  1  0  0  0  0
 13 17  1  0  0  0  0
 18 11  1  0  0  0  0
 19 27  1  0  0  0  0
 19 24  1  0  0  0  0
 20 19  1  0  0  0  0
 20 25  1  0  0  0  0
 21 27  1  0  0  0  0
 21 32  1  0  0  0  0
 21 36  1  1  0  0  0
 22 20  1  0  0  0  0
 23 19  1  0  0  0  0
 27 18  1  0  0  0  0
 27 26  1  1  0  0  0
 29 21  1  0  0  0  0
 29 34  1  0  0  0  0
 29 35  1  0  0  0  0
 30 29  1  0  0  0  0
 31 30  1  0  0  0  0
 32 31  2  0  0  0  0
 33 30  1  1  0  0  0
 33 41  5  0  0  0  0
 37 33  5  0  0  0  0
 37 38  5  0  0  0  0
 37 44  1  0  0  0  0
 38 43  1  0  0  0  0
 39 38  5  0  0  0  0
 39 42  1  1  0  0  0
 40 39  5  0  0  0  0
 40 46  1  0  0  0  0
 41 40  5  0  0  0  0
 41 45  1  0  0  0  0
 42 48  2  0  0  0  0
 47 42  1  0  0  0  0
 49 47  1  0  0  0  0
M  END
