40

O          0.38200        0.43800        0.44900
C         -0.49900        1.36800        0.05200
O         -1.64200        1.01200       -0.21900
C         -0.03900        2.82100        0.03300
H          1.15000        0.80200        0.90500
C         -1.15900        3.59000        0.02600
C         -1.12000        4.93200       -0.01700
C          0.04500        5.56600       -0.02300
C          1.20400        4.84800        0.01300
C          1.18800        3.45000        0.00600
C          0.02700        7.00100       -0.03300
H         -2.06000        5.47700       -0.04000
H         -2.16000        3.15100        0.04200
C          2.59500        2.82800       -0.07300
C          2.48900        5.68200        0.06500
C          0.01000        8.21000        0.05900
C         -0.01900        9.63200        0.40900
C          1.19100       10.45500        0.01900
C          0.67900       11.84300        0.36400
N         -0.76400       11.82400       -0.03200
N         -1.08800       10.39500       -0.24200
C          1.40500       13.01900       -0.27800
H         -1.99800       10.13600        0.14900
H         -0.86400       12.29000       -0.94400
H          2.08400       10.18800        0.59200
H          0.74000       11.99600        1.45000
H          1.43600       10.36600       -1.04900
H         -0.16200        9.69200        1.50100
H          3.41800        5.13500       -0.10300
H          2.58000        6.14400        1.05500
H          2.48100        6.47200       -0.69400
C          2.95800        1.37800       -0.35400
H          2.98700        0.78700        0.56500
H          2.30600        0.92200       -1.10100
H          3.98300        1.33300       -0.74600
H          3.08800        3.33800       -0.91400
H          3.13600        3.10800        0.84300
O          0.63800       14.14300       -0.29800
O          2.55800       13.00600       -0.67100
H         -0.23000       13.99200        0.13600
