
 OpenBabel11042013073D

 28 29  0  0  1  0  0  0  0  0999 V2000
    1.0590   -0.3360   -0.0780 O   0  0  0  0  0  0  0  0  0  0  0  0
   -0.0420    0.4210    0.0890 C   0  0  0  0  0  0  0  0  0  0  0  0
   -1.0920   -0.1500    0.3420 O   0  0  0  0  0  0  0  0  0  0  0  0
    0.1130    1.9280   -0.0470 C   0  0  1  0  0  0  0  0  0  0  0  0
    1.9000    0.1410   -0.1710 H   0  0  0  0  0  0  0  0  0  0  0  0
   -1.0210    2.6860   -0.1420 C   0  0  2  0  0  0  0  0  0  0  0  0
   -0.9280    4.0360   -0.1750 C   0  0  0  0  0  0  0  0  0  0  0  0
    0.2490    4.6880   -0.1270 C   0  0  2  0  0  0  0  0  0  0  0  0
    1.3580    3.9310   -0.0720 C   0  0  0  0  0  0  0  0  0  0  0  0
    1.3140    2.5810   -0.0230 C   0  0  1  0  0  0  0  0  0  0  0  0
    0.3550    6.0590   -0.0260 N   0  0  0  0  0  0  0  0  0  0  0  0
   -1.8400    4.6300   -0.2190 H   0  0  0  0  0  0  0  0  0  0  0  0
   -2.8150    2.0620   -0.2120 Br  0  0  0  0  0  0  0  0  0  0  0  0
    3.0320    1.7740    0.1120 Br  0  0  0  0  0  0  0  0  0  0  0  0
    2.3160    4.4500   -0.0370 H   0  0  0  0  0  0  0  0  0  0  0  0
   -0.5770    6.7470   -0.4950 N   0  0  0  0  0  0  0  0  0  0  0  0
   -0.7000    8.0410    0.1900 C   0  0  1  0  0  0  0  0  0  0  0  0
    0.5130    8.9170    0.0590 C   0  0  0  0  0  0  0  0  0  0  0  0
   -0.1280   10.1980   -0.0410 N   0  0  0  0  0  0  0  0  0  0  0  0
   -1.4380   10.0940   -0.3980 N   0  0  0  0  0  0  0  0  0  0  0  0
   -1.7730    8.8780   -0.3940 N   0  0  0  0  0  0  0  0  0  0  0  0
    0.5090   11.3960    0.1090 C   0  0  0  0  0  0  0  0  0  0  0  0
    1.0860    8.7450   -0.8580 H   0  0  0  0  0  0  0  0  0  0  0  0
    1.1830    8.8700    0.9230 H   0  0  0  0  0  0  0  0  0  0  0  0
   -0.9540    7.8730    1.2460 H   0  0  0  0  0  0  0  0  0  0  0  0
   -0.2930   12.4690   -0.0420 O   0  0  0  0  0  0  0  0  0  0  0  0
    1.6910   11.5540    0.3740 O   0  0  0  0  0  0  0  0  0  0  0  0
    0.3040   13.2300    0.1020 H   0  0  0  0  0  0  0  0  0  0  0  0
  1  5  1  0  0  0  0
  2  1  1  0  0  0  0
  3  2  2  0  0  0  0
  4  2  1  1  0  0  0
  4 10  5  0  0  0  0
  6  4  5  0  0  0  0
  6  7  5  0  0  0  0
  6 13  1  1  0  0  0
  7 12  1  0  0  0  0
  8  7  5  0  0  0  0
  8 11  1  1  0  0  0
  9  8  5  0  0  0  0
  9 15  1  0  0  0  0
 10  9  5  0  0  0  0
 10 14  1  1  0  0  0
 16 11  2  0  0  0  0
 17 16  1  0  0  0  0
 17 21  1  0  0  0  0
 17 25  1  1  0  0  0
 18 17  1  0  0  0  0
 18 23  1  0  0  0  0
 18 24  1  0  0  0  0
 19 18  1  0  0  0  0
 20 19  1  0  0  0  0
 21 20  2  0  0  0  0
 22 19  1  0  0  0  0
 22 27  2  0  0  0  0
 26 22  1  0  0  0  0
 28 26  1  0  0  0  0
M  END
