28

O          1.05900       -0.33600       -0.07800
C         -0.04200        0.42100        0.08900
O         -1.09200       -0.15000        0.34200
C          0.11300        1.92800       -0.04700
H          1.90000        0.14100       -0.17100
C         -1.02100        2.68600       -0.14200
C         -0.92800        4.03600       -0.17500
C          0.24900        4.68800       -0.12700
C          1.35800        3.93100       -0.07200
C          1.31400        2.58100       -0.02300
N          0.35500        6.05900       -0.02600
H         -1.84000        4.63000       -0.21900
Br        -2.81500        2.06200       -0.21200
Br         3.03200        1.77400        0.11200
H          2.31600        4.45000       -0.03700
N         -0.57700        6.74700       -0.49500
C         -0.70000        8.04100        0.19000
C          0.51300        8.91700        0.05900
N         -0.12800       10.19800       -0.04100
N         -1.43800       10.09400       -0.39800
N         -1.77300        8.87800       -0.39400
C          0.50900       11.39600        0.10900
H          1.08600        8.74500       -0.85800
H          1.18300        8.87000        0.92300
H         -0.95400        7.87300        1.24600
O         -0.29300       12.46900       -0.04200
O          1.69100       11.55400        0.37400
H          0.30400       13.23000        0.10200
