
 OpenBabel11042013033D

 52 55  0  0  1  0  0  0  0  0999 V2000
    1.0850    0.5160   -0.1860 O   0  0  0  0  0  0  0  0  0  0  0  0
   -0.0410    1.2610   -0.2030 C   0  0  0  0  0  0  0  0  0  0  0  0
   -1.1380    0.7270   -0.2340 O   0  0  0  0  0  0  0  0  0  0  0  0
    0.1590    2.7530   -0.1580 C   0  0  1  0  0  0  0  0  0  0  0  0
    1.9240    0.9980   -0.1730 H   0  0  0  0  0  0  0  0  0  0  0  0
   -0.9860    3.4740   -0.1590 C   0  0  0  0  0  0  0  0  0  0  0  0
   -0.9570    4.8150   -0.0600 C   0  0  0  0  0  0  0  0  0  0  0  0
    0.2100    5.5040    0.0540 C   0  0  2  0  0  0  0  0  0  0  0  0
    1.3490    4.7740    0.0070 C   0  0  0  0  0  0  0  0  0  0  0  0
    1.3290    3.4210   -0.0930 C   0  0  0  0  0  0  0  0  0  0  0  0
    0.1830    7.0150    0.3380 C   0  0  1  0  0  0  0  0  0  0  0  0
   -1.9140    5.3210   -0.0310 H   0  0  0  0  0  0  0  0  0  0  0  0
   -1.9570    2.9810   -0.2120 H   0  0  0  0  0  0  0  0  0  0  0  0
    2.2870    2.9150   -0.0900 H   0  0  0  0  0  0  0  0  0  0  0  0
    2.3150    5.2710    0.0960 H   0  0  0  0  0  0  0  0  0  0  0  0
    1.2970    8.0050   -0.0650 C   0  0  0  0  0  0  0  0  0  0  0  0
    0.6690    9.3020    0.4540 C   0  0  2  0  0  0  0  0  0  0  0  0
   -0.7640    9.1580    0.1160 N   0  0  0  0  0  0  0  0  0  0  0  0
   -0.9870    7.7440   -0.1940 N   0  0  0  0  0  0  0  0  0  0  0  0
    1.1600   10.6350    0.0520 C   0  0  0  0  0  0  0  0  0  0  0  0
   -1.8370    7.4170    0.2690 H   0  0  0  0  0  0  0  0  0  0  0  0
   -0.9650    9.7260   -0.7130 H   0  0  0  0  0  0  0  0  0  0  0  0
    2.2470    7.7840    0.4310 H   0  0  0  0  0  0  0  0  0  0  0  0
    0.7430    9.2780    1.5510 H   0  0  0  0  0  0  0  0  0  0  0  0
    1.4640    8.0180   -1.1500 H   0  0  0  0  0  0  0  0  0  0  0  0
    0.1130    7.0500    1.4370 H   0  0  0  0  0  0  0  0  0  0  0  0
    1.3130   11.8270   -0.0610 C   0  0  0  0  0  0  0  0  0  0  0  0
    1.2840   13.2690   -0.0770 C   0  0  1  0  0  0  0  0  0  0  0  0
    0.1060   13.9210   -0.0550 C   0  0  0  0  0  0  0  0  0  0  0  0
    0.0470   15.2670   -0.1050 C   0  0  0  0  0  0  0  0  0  0  0  0
    1.1680   16.0270   -0.1900 C   0  0  1  0  0  0  0  0  0  0  0  0
    2.3540   15.3650   -0.1600 C   0  0  0  0  0  0  0  0  0  0  0  0
    2.4110   14.0140   -0.1110 C   0  0  0  0  0  0  0  0  0  0  0  0
    1.0740   17.5430   -0.4220 C   0  0  2  0  0  0  0  0  0  0  0  0
   -0.9360   15.7300   -0.1190 H   0  0  0  0  0  0  0  0  0  0  0  0
   -0.8290   13.3580   -0.0140 H   0  0  0  0  0  0  0  0  0  0  0  0
    3.3820   13.5250   -0.1180 H   0  0  0  0  0  0  0  0  0  0  0  0
    3.2890   15.9140   -0.2220 H   0  0  0  0  0  0  0  0  0  0  0  0
    2.2020   18.4950   -0.0210 C   0  0  0  0  0  0  0  0  0  0  0  0
    1.5940   19.8380   -0.4220 C   0  0  1  0  0  0  0  0  0  0  0  0
    0.1350   19.6670   -0.1890 N   0  0  0  0  0  0  0  0  0  0  0  0
   -0.0600   18.2650    0.1890 N   0  0  0  0  0  0  0  0  0  0  0  0
    2.1440   21.0720    0.2810 C   0  0  0  0  0  0  0  0  0  0  0  0
   -0.9390   17.9180   -0.1980 H   0  0  0  0  0  0  0  0  0  0  0  0
   -0.1660   20.3170    0.5480 H   0  0  0  0  0  0  0  0  0  0  0  0
    3.1330   18.3060   -0.5650 H   0  0  0  0  0  0  0  0  0  0  0  0
    1.7410   20.0050   -1.4970 H   0  0  0  0  0  0  0  0  0  0  0  0
    2.4180   18.4550    1.0560 H   0  0  0  0  0  0  0  0  0  0  0  0
    0.9570   17.6230   -1.5160 H   0  0  0  0  0  0  0  0  0  0  0  0
    1.2190   22.0500    0.4420 O   0  0  0  0  0  0  0  0  0  0  0  0
    3.3070   21.2760    0.5900 O   0  0  0  0  0  0  0  0  0  0  0  0
    1.7250   22.8240    0.7680 H   0  0  0  0  0  0  0  0  0  0  0  0
  1  5  1  0  0  0  0
  2  1  1  0  0  0  0
  3  2  2  0  0  0  0
  4  2  1  1  0  0  0
  4 10  5  0  0  0  0
  6  4  5  0  0  0  0
  6  7  5  0  0  0  0
  6 13  1  0  0  0  0
  7 12  1  0  0  0  0
  8  7  5  1  0  0  0
  8 11  1  0  0  0  0
  9  8  5  0  0  0  0
  9 15  1  0  0  0  0
 10  9  5  0  0  0  0
 10 14  1  0  0  0  0
 11 19  1  0  0  0  0
 11 26  1  1  0  0  0
 16 11  1  0  0  0  0
 16 23  1  0  0  0  0
 16 25  1  0  0  0  0
 17 16  1  0  0  0  0
 17 24  1  1  0  0  0
 18 17  1  0  0  0  0
 19 18  1  0  0  0  0
 20 17  1  0  0  0  0
 21 19  1  0  0  0  0
 22 18  1  0  0  0  0
 27 20  3  0  0  0  0
 28 27  1  1  0  0  0
 28 33  5  0  0  0  0
 29 28  5  0  0  0  0
 29 30  5  0  0  0  0
 29 36  1  0  0  0  0
 30 35  1  0  0  0  0
 31 30  5  6  0  0  0
 31 34  1  0  0  0  0
 32 31  5  0  0  0  0
 32 38  1  0  0  0  0
 33 32  5  0  0  0  0
 33 37  1  0  0  0  0
 34 42  1  0  0  0  0
 34 49  1  6  0  0  0
 39 34  1  0  0  0  0
 39 46  1  0  0  0  0
 39 48  1  0  0  0  0
 40 39  1  0  0  0  0
 40 47  1  6  0  0  0
 41 40  1  0  0  0  0
 42 41  1  0  0  0  0
 43 40  1  0  0  0  0
 43 51  2  0  0  0  0
 44 42  1  0  0  0  0
 45 41  1  0  0  0  0
 50 43  1  0  0  0  0
 52 50  1  0  0  0  0
M  END
