
 OpenBabel02032115563D

 24 24  0  0  1  0  0  0  0  0999 V2000
    1.5950    0.4430    0.3180 O   0  0  0  0  0  0  0  0  0  0  0  0
    0.8710    1.5250    0.0800 C   0  0  0  0  0  0  0  0  0  0  0  0
   -0.2250    1.2660    0.5370 O   0  0  0  0  0  0  0  0  0  0  0  0
    0.9230    2.9490   -0.2500 C   0  0  1  0  0  0  0  0  0  0  0  0
    2.5030    0.4170    0.0000 H   0  0  0  0  0  0  0  0  0  0  0  0
   -0.1070    3.5040   -0.9130 C   0  0  2  0  0  0  0  0  0  0  0  0
   -0.3600    4.8160   -0.7980 C   0  0  2  0  0  0  0  0  0  0  0  0
    0.4550    5.7890   -0.2250 C   0  0  1  0  0  0  0  0  0  0  0  0
    1.6580    5.1700    0.1520 C   0  0  0  0  0  0  0  0  0  0  0  0
    1.8470    3.8170    0.1990 C   0  0  1  0  0  0  0  0  0  0  0  0
    0.2430    7.2010   -0.1700 C   0  0  0  0  0  0  0  0  0  0  0  0
   -1.5000    4.8090   -0.1610 O   0  0  0  0  0  0  0  0  0  0  0  0
   -1.3420    2.5480   -1.6980 Cl  0  0  0  0  0  0  0  0  0  0  0  0
    2.8070    3.4770    0.6530 C   0  0  0  0  0  0  0  0  0  0  0  0
    2.4550    5.8300    0.5030 H   0  0  0  0  0  0  0  0  0  0  0  0
    3.8100    2.9970    0.3840 N   0  0  0  0  0  0  0  0  0  0  0  0
   -1.4330    3.8120    0.0000 H   0  0  0  0  0  0  0  0  0  0  0  0
   -0.7730    8.1560   -0.1270 C   0  0  0  0  0  0  0  0  0  0  0  0
   -0.6430    9.7140   -0.0650 C   0  0  0  0  0  0  0  0  0  0  0  0
   -1.8030    7.7990   -0.1400 H   0  0  0  0  0  0  0  0  0  0  0  0
    1.2080    7.7000   -0.1530 H   0  0  0  0  0  0  0  0  0  0  0  0
   -1.7490   10.5160   -0.0410 O   0  0  0  0  0  0  0  0  0  0  0  0
    0.4570   10.2250   -0.0370 O   0  0  0  0  0  0  0  0  0  0  0  0
   -1.6990   11.5770    0.0000 H   0  0  0  0  0  0  0  0  0  0  0  0
  1  5  1  0  0  0  0
  2  1  1  0  0  0  0
  3  2  2  0  0  0  0
  4  2  1  1  0  0  0
  4 10  5  0  0  0  0
  6  4  5  0  0  0  0
  6  7  5  0  0  0  0
  6 13  1  1  0  0  0
  7 12  1  1  0  0  0
  8  7  5  0  0  0  0
  8 11  1  6  0  0  0
  9  8  5  0  0  0  0
  9 15  1  0  0  0  0
 10  9  5  0  0  0  0
 10 14  1  1  0  0  0
 11 21  1  0  0  0  0
 12 17  1  0  0  0  0
 14 16  3  0  0  0  0
 18 11  2  0  0  0  0
 18 20  1  0  0  0  0
 19 18  1  0  0  0  0
 19 23  2  0  0  0  0
 22 19  1  0  0  0  0
 24 22  1  0  0  0  0
M  END
