
 OpenBabel11042013073D

 29 29  0  0  1  0  0  0  0  0999 V2000
    1.3680    0.5000   -0.3680 O   0  0  0  0  0  0  0  0  0  0  0  0
    0.2230    1.2060   -0.4300 C   0  0  0  0  0  0  0  0  0  0  0  0
   -0.8310    0.6000   -0.5900 O   0  0  0  0  0  0  0  0  0  0  0  0
    0.2610    2.7150   -0.3220 C   0  0  2  0  0  0  0  0  0  0  0  0
    2.2650    0.8780   -0.2800 H   0  0  0  0  0  0  0  0  0  0  0  0
   -0.9510    3.2870   -0.4990 C   0  0  0  0  0  0  0  0  0  0  0  0
   -1.1100    4.6230   -0.5040 C   0  0  1  0  0  0  0  0  0  0  0  0
   -0.0520    5.4480   -0.2950 C   0  0  1  0  0  0  0  0  0  0  0  0
    1.1820    4.8980   -0.0350 C   0  0  2  0  0  0  0  0  0  0  0  0
    1.3160    3.5320   -0.0850 C   0  0  2  0  0  0  0  0  0  0  0  0
   -0.1500    6.8960   -0.4690 C   0  0  0  0  0  0  0  0  0  0  0  0
   -2.7200    5.2070   -0.8330 Cl  0  0  0  0  0  0  0  0  0  0  0  0
   -1.8300    2.6660   -0.6800 H   0  0  0  0  0  0  0  0  0  0  0  0
    2.6120    2.9590    0.0650 C   0  0  0  0  0  0  0  0  0  0  0  0
    2.4600    5.7080    0.3290 C   0  0  0  0  0  0  0  0  0  0  0  0
   -0.9530    7.7780    0.1500 C   0  0  0  0  0  0  0  0  0  0  0  0
   -0.6890    9.2010   -0.1090 C   0  0  0  0  0  0  0  0  0  0  0  0
   -1.7290    7.5170    0.8560 H   0  0  0  0  0  0  0  0  0  0  0  0
    0.5810    7.2850   -1.1810 H   0  0  0  0  0  0  0  0  0  0  0  0
    2.4060    7.1280    0.8900 C   0  0  0  0  0  0  0  0  0  0  0  0
    2.3200    7.8680    0.0900 H   0  0  0  0  0  0  0  0  0  0  0  0
    1.5980    7.2600    1.6140 H   0  0  0  0  0  0  0  0  0  0  0  0
    3.3450    7.3540    1.4090 H   0  0  0  0  0  0  0  0  0  0  0  0
    2.9720    5.1540    1.1290 H   0  0  0  0  0  0  0  0  0  0  0  0
    3.1300    5.7070   -0.5400 H   0  0  0  0  0  0  0  0  0  0  0  0
    3.6080    2.3680    0.1210 N   0  0  0  0  0  0  0  0  0  0  0  0
   -1.7270    9.9630    0.2570 O   0  0  0  0  0  0  0  0  0  0  0  0
    0.3290    9.6790   -0.5730 O   0  0  0  0  0  0  0  0  0  0  0  0
   -1.4230   10.8700    0.0390 H   0  0  0  0  0  0  0  0  0  0  0  0
  1  5  1  0  0  0  0
  2  1  1  0  0  0  0
  3  2  2  0  0  0  0
  4  2  1  6  0  0  0
  4 10  5  0  0  0  0
  6  4  5  0  0  0  0
  6  7  5  0  0  0  0
  6 13  1  0  0  0  0
  7 12  1  6  0  0  0
  8  7  5  0  0  0  0
  8 11  1  6  0  0  0
  9  8  5  0  0  0  0
  9 15  1  1  0  0  0
 10  9  5  0  0  0  0
 10 14  1  6  0  0  0
 11 19  1  0  0  0  0
 14 26  3  0  0  0  0
 15 24  1  0  0  0  0
 15 25  1  0  0  0  0
 16 11  2  0  0  0  0
 16 18  1  0  0  0  0
 17 16  1  0  0  0  0
 17 28  2  0  0  0  0
 20 21  1  0  0  0  0
 20 22  1  0  0  0  0
 20 23  1  0  0  0  0
 20 15  1  0  0  0  0
 27 17  1  0  0  0  0
 29 27  1  0  0  0  0
M  END
