
 OpenBabel11042013073D

 40 42  0  0  1  0  0  0  0  0999 V2000
    1.6440   -0.2450   -0.1100 O   0  0  0  0  0  0  0  0  0  0  0  0
    0.3830    0.1610   -0.3910 C   0  0  0  0  0  0  0  0  0  0  0  0
   -0.4280   -0.6720   -0.7790 O   0  0  0  0  0  0  0  0  0  0  0  0
    0.1140    1.6450   -0.1770 C   0  0  2  0  0  0  0  0  0  0  0  0
    2.2230    0.3750    0.3620 H   0  0  0  0  0  0  0  0  0  0  0  0
   -1.1500    2.1290   -0.0090 C   0  0  1  0  0  0  0  0  0  0  0  0
   -1.3520    3.4730    0.1960 C   0  0  2  0  0  0  0  0  0  0  0  0
   -0.2810    4.3650    0.2260 C   0  0  1  0  0  0  0  0  0  0  0  0
    0.9460    3.8410    0.0200 C   0  0  0  0  0  0  0  0  0  0  0  0
    1.1420    2.5240   -0.1800 C   0  0  0  0  0  0  0  0  0  0  0  0
   -0.4550    5.9080    0.4510 C   0  0  1  0  0  0  0  0  0  0  0  0
   -2.7760    3.9830    0.4010 C   0  0  0  0  0  0  0  0  0  0  0  0
   -2.6710    0.9490   -0.0620 Br  0  0  0  0  0  0  0  0  0  0  0  0
    2.1660    2.2000   -0.3500 H   0  0  0  0  0  0  0  0  0  0  0  0
    1.8140    4.4990    0.0160 H   0  0  0  0  0  0  0  0  0  0  0  0
    0.6770    6.7960    0.1310 O   0  0  0  0  0  0  0  0  0  0  0  0
   -1.3360    7.9320   -0.4190 C   0  0  0  0  0  0  0  0  0  0  0  0
   -1.6180    6.4850   -0.3310 C   0  0  0  0  0  0  0  0  0  0  0  0
    0.5320    9.3830    0.2940 C   0  0  1  0  0  0  0  0  0  0  0  0
   -2.5700    6.3860    0.1930 H   0  0  0  0  0  0  0  0  0  0  0  0
   -1.7520    8.3770    0.4970 H   0  0  0  0  0  0  0  0  0  0  0  0
   -1.8220    8.4090   -1.2740 H   0  0  0  0  0  0  0  0  0  0  0  0
   -1.6940    6.0560   -1.3330 H   0  0  0  0  0  0  0  0  0  0  0  0
    0.5400    8.0830   -1.4860 H   0  0  0  0  0  0  0  0  0  0  0  0
    0.1800    8.0530   -0.4510 C   0  0  1  0  0  0  0  0  0  0  0  0
   -0.6020    6.0460    1.5310 H   0  0  0  0  0  0  0  0  0  0  0  0
   -3.5340    3.2370    0.6280 H   0  0  0  0  0  0  0  0  0  0  0  0
   -3.1310    4.4690   -0.5150 H   0  0  0  0  0  0  0  0  0  0  0  0
   -2.8170    4.6530    1.2630 H   0  0  0  0  0  0  0  0  0  0  0  0
    1.7210   10.2230   -0.1370 C   0  0  0  0  0  0  0  0  0  0  0  0
    1.1030   11.5360   -0.2640 N   0  0  0  0  0  0  0  0  0  0  0  0
   -0.2420   11.4810   -0.2410 N   0  0  0  0  0  0  0  0  0  0  0  0
   -0.6030   10.3310    0.0590 N   0  0  0  0  0  0  0  0  0  0  0  0
    1.7050   12.7560   -0.1070 C   0  0  0  0  0  0  0  0  0  0  0  0
    2.5180   10.2590    0.6130 H   0  0  0  0  0  0  0  0  0  0  0  0
    2.1440    9.9390   -1.1060 H   0  0  0  0  0  0  0  0  0  0  0  0
    0.5940    9.1890    1.3710 H   0  0  0  0  0  0  0  0  0  0  0  0
    0.8350   13.7960   -0.1510 O   0  0  0  0  0  0  0  0  0  0  0  0
    2.8900   12.9670    0.0940 O   0  0  0  0  0  0  0  0  0  0  0  0
    1.3720   14.5870    0.0420 H   0  0  0  0  0  0  0  0  0  0  0  0
  1  5  1  0  0  0  0
  2  1  1  0  0  0  0
  3  2  2  0  0  0  0
  4  2  1  6  0  0  0
  4 10  5  0  0  0  0
  6  4  5  0  0  0  0
  6  7  5  0  0  0  0
  6 13  1  6  0  0  0
  7 12  1  1  0  0  0
  8  7  5  0  0  0  0
  8  9  5  6  0  0  0
  8 11  1  0  0  0  0
  9 15  1  0  0  0  0
 10  9  5  0  0  0  0
 10 14  1  0  0  0  0
 11 18  1  0  0  0  0
 11 26  1  1  0  0  0
 12 27  1  0  0  0  0
 12 28  1  0  0  0  0
 12 29  1  0  0  0  0
 16 11  1  0  0  0  0
 17 25  1  0  0  0  0
 17 22  1  0  0  0  0
 18 17  1  0  0  0  0
 18 23  1  0  0  0  0
 19 25  1  0  0  0  0
 19 33  1  0  0  0  0
 19 37  1  1  0  0  0
 20 18  1  0  0  0  0
 21 17  1  0  0  0  0
 25 16  1  0  0  0  0
 25 24  1  6  0  0  0
 30 19  1  0  0  0  0
 30 35  1  0  0  0  0
 30 36  1  0  0  0  0
 31 30  1  0  0  0  0
 32 31  1  0  0  0  0
 33 32  2  0  0  0  0
 34 31  1  0  0  0  0
 34 39  2  0  0  0  0
 38 34  1  0  0  0  0
 40 38  1  0  0  0  0
M  END
