
 OpenBabel11042013073D

 34 35  0  0  1  0  0  0  0  0999 V2000
    1.3800   -0.1840    0.1020 O   0  0  0  0  0  0  0  0  0  0  0  0
    0.1560    0.3790    0.1780 C   0  0  0  0  0  0  0  0  0  0  0  0
   -0.8570   -0.3070    0.1590 O   0  0  0  0  0  0  0  0  0  0  0  0
    0.1310    1.8710    0.2230 C   0  0  2  0  0  0  0  0  0  0  0  0
    2.1230    0.4500    0.1160 H   0  0  0  0  0  0  0  0  0  0  0  0
   -1.0770    2.4610    0.1390 C   0  0  0  0  0  0  0  0  0  0  0  0
   -1.2170    3.8070    0.0680 C   0  0  1  0  0  0  0  0  0  0  0  0
   -0.1010    4.6080    0.0870 C   0  0  1  0  0  0  0  0  0  0  0  0
    1.1020    3.9980    0.2380 C   0  0  0  0  0  0  0  0  0  0  0  0
    1.2210    2.6570    0.2970 C   0  0  2  0  0  0  0  0  0  0  0  0
   -0.1110    6.1190   -0.2010 C   0  0  2  0  0  0  0  0  0  0  0  0
   -2.6400    4.2920   -0.0940 C   0  0  0  0  0  0  0  0  0  0  0  0
   -1.9630    1.8270    0.0810 H   0  0  0  0  0  0  0  0  0  0  0  0
    2.4520    2.1150    0.3830 F   0  0  0  0  0  0  0  0  0  0  0  0
    2.0160    4.5910    0.2630 H   0  0  0  0  0  0  0  0  0  0  0  0
   -3.3680    3.4720   -0.0990 H   0  0  0  0  0  0  0  0  0  0  0  0
   -2.9330    4.9390    0.7370 H   0  0  0  0  0  0  0  0  0  0  0  0
   -2.7660    4.8020   -1.0530 H   0  0  0  0  0  0  0  0  0  0  0  0
    0.9150    6.9460    0.4390 O   0  0  0  0  0  0  0  0  0  0  0  0
   -0.8700    8.3640   -0.1690 C   0  0  0  0  0  0  0  0  0  0  0  0
   -1.3570    6.9530    0.0330 C   0  0  0  0  0  0  0  0  0  0  0  0
    1.1860    9.4570    0.4590 C   0  0  0  0  0  0  0  0  0  0  0  0
   -2.1680    6.7520   -0.6660 H   0  0  0  0  0  0  0  0  0  0  0  0
   -1.2620    9.0020    0.6340 H   0  0  0  0  0  0  0  0  0  0  0  0
   -1.2070    8.7980   -1.1170 H   0  0  0  0  0  0  0  0  0  0  0  0
   -1.7180    6.8390    1.0610 H   0  0  0  0  0  0  0  0  0  0  0  0
    1.0410    8.1970   -1.1780 H   0  0  0  0  0  0  0  0  0  0  0  0
    0.6520    8.2450   -0.1530 C   0  0  1  0  0  0  0  0  0  0  0  0
    0.1210    6.1560   -1.2770 H   0  0  0  0  0  0  0  0  0  0  0  0
    1.2110   10.6560    0.5820 C   0  0  0  0  0  0  0  0  0  0  0  0
    0.8810   12.0490    0.4240 C   0  0  0  0  0  0  0  0  0  0  0  0
   -0.4450   12.2590    0.2750 O   0  0  0  0  0  0  0  0  0  0  0  0
    1.6980   12.9460    0.3240 O   0  0  0  0  0  0  0  0  0  0  0  0
   -0.5270   13.2180    0.0970 H   0  0  0  0  0  0  0  0  0  0  0  0
  1  5  1  0  0  0  0
  2  1  1  0  0  0  0
  3  2  2  0  0  0  0
  4  2  1  6  0  0  0
  4 10  5  0  0  0  0
  6  4  5  0  0  0  0
  6  7  5  0  0  0  0
  6 13  1  0  0  0  0
  7 12  1  6  0  0  0
  8  7  5  0  0  0  0
  8  9  5  6  0  0  0
  8 11  1  0  0  0  0
  9 15  1  0  0  0  0
 10  9  5  0  0  0  0
 10 14  1  6  0  0  0
 11 21  1  0  0  0  0
 11 29  1  6  0  0  0
 12 16  1  0  0  0  0
 12 17  1  0  0  0  0
 12 18  1  0  0  0  0
 19 11  1  0  0  0  0
 20 28  1  0  0  0  0
 20 25  1  0  0  0  0
 21 20  1  0  0  0  0
 21 26  1  0  0  0  0
 22 28  1  0  0  0  0
 23 21  1  0  0  0  0
 24 20  1  0  0  0  0
 28 19  1  0  0  0  0
 28 27  1  6  0  0  0
 30 22  3  0  0  0  0
 31 30  1  0  0  0  0
 31 33  2  0  0  0  0
 32 31  1  0  0  0  0
 34 32  1  0  0  0  0
M  END
