41

O          1.23000       -0.16200       -0.02600
C          0.13000        0.55300       -0.36500
O         -0.81600        0.03500       -0.94500
C          0.18400        2.00800       -0.02000
H          1.85200        0.30900        0.55600
C         -0.94800        2.68800        0.24500
C         -0.89200        4.02200        0.40300
C          0.24700        4.74300        0.24300
C          1.41600        4.05100        0.06100
C          1.35000        2.69700       -0.06300
C          0.05700        6.24100       -0.06600
H         -1.84200        4.51600        0.56500
N         -2.24200        2.08300        0.26100
H          2.27000        2.16400       -0.30100
C          2.83600        4.59200       -0.12200
O          0.71200        7.29700        0.67600
C         -1.19200        8.27000       -0.27600
C         -1.37800        6.77700       -0.14600
C          0.79500        9.81400        0.31800
H         -1.94400        6.35100       -0.97800
H         -1.53100        8.65300       -1.24300
H         -1.77600        8.75800        0.51200
H         -1.92500        6.59400        0.78800
H          0.78700        8.32900       -1.08500
C          0.31100        8.45600       -0.10000
H          0.46000        6.29400       -1.09100
C          3.18000        6.04800        0.12700
H          2.89400        6.35900        1.13600
H          4.26200        6.19500        0.04200
H          2.72200        6.69400       -0.62400
H          3.48800        4.02100        0.55900
H          3.16500        4.34600       -1.14000
C         -0.02100       10.88000        0.41400
C          0.46500       12.26100        0.27400
H         -1.10000       10.79000        0.41100
H          1.87300        9.96900        0.26700
H         -2.30300        1.23600       -0.31100
H         -3.02300        2.69900        0.06300
O         -0.59400       13.08900        0.20200
O          1.60700       12.63900        0.11100
H         -0.20900       13.96600       -0.00200
