
 OpenBabel11042013073D

 40 42  0  0  1  0  0  0  0  0999 V2000
    1.2590    0.7580   -0.2280 O   0  0  0  0  0  0  0  0  0  0  0  0
    0.1160    1.4590   -0.0920 C   0  0  0  0  0  0  0  0  0  0  0  0
   -0.9530    0.8910    0.0540 O   0  0  0  0  0  0  0  0  0  0  0  0
    0.2430    2.9600   -0.1180 C   0  0  1  0  0  0  0  0  0  0  0  0
    2.0570    1.2570   -0.4610 H   0  0  0  0  0  0  0  0  0  0  0  0
   -0.9030    3.6780   -0.2130 C   0  0  2  0  0  0  0  0  0  0  0  0
   -0.8450    5.0230   -0.1530 C   0  0  0  0  0  0  0  0  0  0  0  0
    0.3080    5.7140    0.0190 C   0  0  2  0  0  0  0  0  0  0  0  0
    1.4440    4.9820    0.0610 C   0  0  0  0  0  0  0  0  0  0  0  0
    1.4160    3.6310   -0.0000 C   0  0  0  0  0  0  0  0  0  0  0  0
    0.2880    7.2240    0.3160 C   0  0  1  0  0  0  0  0  0  0  0  0
   -1.8050    5.5370   -0.1900 H   0  0  0  0  0  0  0  0  0  0  0  0
   -2.1650    3.1080   -0.3170 O   0  0  0  0  0  0  0  0  0  0  0  0
    2.3640    3.1150    0.1030 H   0  0  0  0  0  0  0  0  0  0  0  0
    2.4020    5.4740    0.2070 H   0  0  0  0  0  0  0  0  0  0  0  0
    1.3790    8.2490   -0.0810 C   0  0  0  0  0  0  0  0  0  0  0  0
    0.7350    9.5920    0.3730 C   0  0  2  0  0  0  0  0  0  0  0  0
   -0.7200    9.2750    0.3760 N   0  0  0  0  0  0  0  0  0  0  0  0
   -0.8690    7.9680   -0.1990 N   0  0  0  0  0  0  0  0  0  0  0  0
    0.9750   10.8950   -0.4360 C   0  0  2  0  0  0  0  0  0  0  0  0
   -1.7380    7.5430    0.1310 H   0  0  0  0  0  0  0  0  0  0  0  0
   -1.2360    9.9970   -0.1420 H   0  0  0  0  0  0  0  0  0  0  0  0
    2.3220    8.0610    0.4450 H   0  0  0  0  0  0  0  0  0  0  0  0
    1.0150    9.7690    1.4200 H   0  0  0  0  0  0  0  0  0  0  0  0
    1.5710    8.2350   -1.1610 H   0  0  0  0  0  0  0  0  0  0  0  0
    0.2310    7.2440    1.4180 H   0  0  0  0  0  0  0  0  0  0  0  0
   -2.1510    2.1330   -0.1900 H   0  0  0  0  0  0  0  0  0  0  0  0
    2.1610   11.7800   -0.0750 C   0  0  0  0  0  0  0  0  0  0  0  0
    1.5150   13.0670    0.0320 N   0  0  0  0  0  0  0  0  0  0  0  0
    0.1640   12.9850    0.0390 N   0  0  0  0  0  0  0  0  0  0  0  0
   -0.1860   11.8030   -0.1680 N   0  0  0  0  0  0  0  0  0  0  0  0
    2.1770   14.2630    0.0090 N   0  0  0  0  0  0  0  0  0  0  0  0
    2.9190   11.8070   -0.8640 H   0  0  0  0  0  0  0  0  0  0  0  0
    2.6220   11.5390    0.8870 H   0  0  0  0  0  0  0  0  0  0  0  0
    0.9690   10.6850   -1.5110 H   0  0  0  0  0  0  0  0  0  0  0  0
    1.3660   15.2180    0.0530 N   0  0  0  0  0  0  0  0  0  0  0  0
    1.9420   16.4540   -0.0380 C   0  0  0  0  0  0  0  0  0  0  0  0
    0.9960   17.4260   -0.0170 O   0  0  0  0  0  0  0  0  0  0  0  0
    3.1190   16.7690   -0.1370 O   0  0  0  0  0  0  0  0  0  0  0  0
    1.5130   18.2510   -0.0970 H   0  0  0  0  0  0  0  0  0  0  0  0
  1  5  1  0  0  0  0
  2  1  1  0  0  0  0
  3  2  2  0  0  0  0
  4  2  1  1  0  0  0
  4 10  5  0  0  0  0
  6  4  5  0  0  0  0
  6  7  5  0  0  0  0
  6 13  1  1  0  0  0
  7 12  1  0  0  0  0
  8  7  5  1  0  0  0
  8 11  1  0  0  0  0
  9  8  5  0  0  0  0
  9 15  1  0  0  0  0
 10  9  5  0  0  0  0
 10 14  1  0  0  0  0
 11 19  1  0  0  0  0
 11 26  1  1  0  0  0
 13 27  1  0  0  0  0
 16 11  1  0  0  0  0
 16 23  1  0  0  0  0
 16 25  1  0  0  0  0
 17 16  1  0  0  0  0
 17 24  1  1  0  0  0
 18 17  1  0  0  0  0
 19 18  1  0  0  0  0
 20 17  1  0  0  0  0
 20 31  1  0  0  0  0
 20 35  1  6  0  0  0
 21 19  1  0  0  0  0
 22 18  1  0  0  0  0
 28 20  1  0  0  0  0
 28 33  1  0  0  0  0
 28 34  1  0  0  0  0
 29 28  1  0  0  0  0
 30 29  1  0  0  0  0
 31 30  2  0  0  0  0
 32 29  1  0  0  0  0
 36 32  2  0  0  0  0
 37 36  1  0  0  0  0
 37 39  2  0  0  0  0
 38 37  1  0  0  0  0
 40 38  1  0  0  0  0
M  END
