40

O          1.25900        0.75800       -0.22800
C          0.11600        1.45900       -0.09200
O         -0.95300        0.89100        0.05400
C          0.24300        2.96000       -0.11800
H          2.05700        1.25700       -0.46100
C         -0.90300        3.67800       -0.21300
C         -0.84500        5.02300       -0.15300
C          0.30800        5.71400        0.01900
C          1.44400        4.98200        0.06100
C          1.41600        3.63100       -0.00000
C          0.28800        7.22400        0.31600
H         -1.80500        5.53700       -0.19000
O         -2.16500        3.10800       -0.31700
H          2.36400        3.11500        0.10300
H          2.40200        5.47400        0.20700
C          1.37900        8.24900       -0.08100
C          0.73500        9.59200        0.37300
N         -0.72000        9.27500        0.37600
N         -0.86900        7.96800       -0.19900
C          0.97500       10.89500       -0.43600
H         -1.73800        7.54300        0.13100
H         -1.23600        9.99700       -0.14200
H          2.32200        8.06100        0.44500
H          1.01500        9.76900        1.42000
H          1.57100        8.23500       -1.16100
H          0.23100        7.24400        1.41800
H         -2.15100        2.13300       -0.19000
C          2.16100       11.78000       -0.07500
N          1.51500       13.06700        0.03200
N          0.16400       12.98500        0.03900
N         -0.18600       11.80300       -0.16800
N          2.17700       14.26300        0.00900
H          2.91900       11.80700       -0.86400
H          2.62200       11.53900        0.88700
H          0.96900       10.68500       -1.51100
N          1.36600       15.21800        0.05300
C          1.94200       16.45400       -0.03800
O          0.99600       17.42600       -0.01700
O          3.11900       16.76900       -0.13700
H          1.51300       18.25100       -0.09700
