
 OpenBabel11042013073D

 20 20  0  0  1  0  0  0  0  0999 V2000
    0.7540    0.4310   -0.5050 O   0  0  0  0  0  0  0  0  0  0  0  0
   -0.1720    1.1170    0.2010 C   0  0  0  0  0  0  0  0  0  0  0  0
   -1.0260    0.5400    0.8550 O   0  0  0  0  0  0  0  0  0  0  0  0
   -0.0880    2.6090    0.0640 C   0  0  1  0  0  0  0  0  0  0  0  0
    1.5230    0.9530   -0.8030 H   0  0  0  0  0  0  0  0  0  0  0  0
   -1.2100    3.3170   -0.2500 C   0  0  1  0  0  0  0  0  0  0  0  0
   -1.1340    4.6760   -0.3520 C   0  0  1  0  0  0  0  0  0  0  0  0
    0.0460    5.3250   -0.1580 C   0  0  1  0  0  0  0  0  0  0  0  0
    1.1360    4.5920    0.1360 C   0  0  0  0  0  0  0  0  0  0  0  0
    1.0900    3.2500    0.2650 C   0  0  2  0  0  0  0  0  0  0  0  0
    0.2020    6.6880   -0.3110 N   0  0  0  0  0  0  0  0  0  0  0  0
   -2.5480    5.6410   -0.7560 Cl  0  0  0  0  0  0  0  0  0  0  0  0
   -2.8840    2.4490   -0.5910 Br  0  0  0  0  0  0  0  0  0  0  0  0
    2.7150    2.3950    0.7200 Br  0  0  0  0  0  0  0  0  0  0  0  0
    2.0800    5.1170    0.2790 H   0  0  0  0  0  0  0  0  0  0  0  0
   -0.2850    7.3970    0.5960 N   0  0  0  0  0  0  0  0  0  0  0  0
   -0.1690    8.7250    0.2760 C   0  0  0  0  0  0  0  0  0  0  0  0
   -1.3630    9.3540    0.3240 O   0  0  0  0  0  0  0  0  0  0  0  0
    0.8360    9.3460   -0.0360 O   0  0  0  0  0  0  0  0  0  0  0  0
   -1.1460   10.2610    0.0320 H   0  0  0  0  0  0  0  0  0  0  0  0
  1  5  1  0  0  0  0
  2  1  1  0  0  0  0
  3  2  2  0  0  0  0
  4  2  1  1  0  0  0
  4 10  5  0  0  0  0
  6  4  5  0  0  0  0
  6  7  5  0  0  0  0
  6 13  1  6  0  0  0
  7 12  1  6  0  0  0
  8  7  5  0  0  0  0
  8 11  1  6  0  0  0
  9  8  5  0  0  0  0
  9 15  1  0  0  0  0
 10  9  5  0  0  0  0
 10 14  1  6  0  0  0
 16 11  2  0  0  0  0
 17 16  1  0  0  0  0
 17 19  2  0  0  0  0
 18 17  1  0  0  0  0
 20 18  1  0  0  0  0
M  END
