
 OpenBabel11042013073D

 25 25  0  0  1  0  0  0  0  0999 V2000
    0.8530    0.5260   -0.5210 O   0  0  0  0  0  0  0  0  0  0  0  0
   -0.0820    1.1710    0.2030 C   0  0  0  0  0  0  0  0  0  0  0  0
   -0.7380    0.5580    1.0360 O   0  0  0  0  0  0  0  0  0  0  0  0
   -0.2660    2.6460   -0.0420 C   0  0  1  0  0  0  0  0  0  0  0  0
    1.4730    0.9960   -1.1070 H   0  0  0  0  0  0  0  0  0  0  0  0
   -1.5470    3.1110   -0.0130 C   0  0  1  0  0  0  0  0  0  0  0  0
   -1.7800    4.4470   -0.0730 C   0  0  2  0  0  0  0  0  0  0  0  0
   -0.7410    5.2980   -0.2220 C   0  0  2  0  0  0  0  0  0  0  0  0
    0.5310    4.8530   -0.3330 C   0  0  1  0  0  0  0  0  0  0  0  0
    0.7620    3.5140   -0.2150 C   0  0  2  0  0  0  0  0  0  0  0  0
   -0.9750    6.7580   -0.2280 C   0  0  0  0  0  0  0  0  0  0  0  0
   -3.1200    4.9430    0.0320 C   0  0  0  0  0  0  0  0  0  0  0  0
   -2.5990    2.2060    0.0710 O   0  0  0  0  0  0  0  0  0  0  0  0
    2.1060    3.0580   -0.2920 C   0  0  0  0  0  0  0  0  0  0  0  0
    2.3530    6.2090    0.3960 C   0  0  0  0  0  0  0  0  0  0  0  0
   -3.5020    2.5760    0.0760 H   0  0  0  0  0  0  0  0  0  0  0  0
    3.1690    2.6060   -0.4060 N   0  0  0  0  0  0  0  0  0  0  0  0
    3.3650    6.3630    0.0090 H   0  0  0  0  0  0  0  0  0  0  0  0
    1.9710    7.1770    0.7280 H   0  0  0  0  0  0  0  0  0  0  0  0
    2.4030    5.5150    1.2390 H   0  0  0  0  0  0  0  0  0  0  0  0
    1.5530    5.7200   -0.6820 O   0  0  0  0  0  0  0  0  0  0  0  0
   -4.2210    5.2930    0.1280 N   0  0  0  0  0  0  0  0  0  0  0  0
   -1.7490    7.1510   -1.2490 O   0  0  0  0  0  0  0  0  0  0  0  0
   -0.5630    7.5410    0.6110 O   0  0  0  0  0  0  0  0  0  0  0  0
   -1.8850    8.1120   -1.0970 H   0  0  0  0  0  0  0  0  0  0  0  0
  1  5  1  0  0  0  0
  2  1  1  0  0  0  0
  3  2  2  0  0  0  0
  4  2  1  1  0  0  0
  4 10  5  0  0  0  0
  6  4  5  0  0  0  0
  6  7  5  0  0  0  0
  6 13  1  6  0  0  0
  7 12  1  1  0  0  0
  8  7  5  0  0  0  0
  8 11  1  1  0  0  0
  9  8  5  0  0  0  0
  9 21  1  6  0  0  0
 10  9  5  0  0  0  0
 10 14  1  6  0  0  0
 11 24  2  0  0  0  0
 12 22  3  0  0  0  0
 13 16  1  0  0  0  0
 14 17  3  0  0  0  0
 15 18  1  0  0  0  0
 15 19  1  0  0  0  0
 15 20  1  0  0  0  0
 15 21  1  0  0  0  0
 23 11  1  0  0  0  0
 25 23  1  0  0  0  0
M  END
