25

O          0.85300        0.52600       -0.52100
C         -0.08200        1.17100        0.20300
O         -0.73800        0.55800        1.03600
C         -0.26600        2.64600       -0.04200
H          1.47300        0.99600       -1.10700
C         -1.54700        3.11100       -0.01300
C         -1.78000        4.44700       -0.07300
C         -0.74100        5.29800       -0.22200
C          0.53100        4.85300       -0.33300
C          0.76200        3.51400       -0.21500
C         -0.97500        6.75800       -0.22800
C         -3.12000        4.94300        0.03200
O         -2.59900        2.20600        0.07100
C          2.10600        3.05800       -0.29200
C          2.35300        6.20900        0.39600
H         -3.50200        2.57600        0.07600
N          3.16900        2.60600       -0.40600
H          3.36500        6.36300        0.00900
H          1.97100        7.17700        0.72800
H          2.40300        5.51500        1.23900
O          1.55300        5.72000       -0.68200
N         -4.22100        5.29300        0.12800
O         -1.74900        7.15100       -1.24900
O         -0.56300        7.54100        0.61100
H         -1.88500        8.11200       -1.09700
