37

O          0.91800       -0.09500        0.25000
C         -0.25200        0.54500        0.45600
O         -1.22900       -0.03800        0.90100
C         -0.26500        1.98600        0.05400
H          1.57700        0.38500       -0.28100
C         -1.47900        2.53900       -0.15000
C         -1.57800        3.81500       -0.55800
C         -0.48600        4.58200       -0.78800
C          0.74300        4.03100       -0.55600
C          0.83400        2.74800       -0.13300
N         -0.73100        5.84300       -1.29000
H         -2.56900        4.22700       -0.73700
H         -2.38800        1.95700       -0.00000
H          1.83100        2.35200        0.03300
C          2.49300        5.43400        0.20600
N          0.00800        6.79400       -0.96700
C         -0.34300        7.46600        0.30500
H          2.24300        6.49100        0.09800
H          2.18300        5.07600        1.19300
H          3.58200        5.36200        0.13100
O          1.92800        4.68700       -0.87000
O          0.53700        8.55900        0.66100
C         -1.39900        9.55100       -0.20800
C         -1.71000        8.12800        0.19800
C          0.54600       10.94700        0.26700
H         -2.40400        7.64300       -0.49300
H         -1.79800        9.81800       -1.19100
H         -1.85400       10.23700        0.52000
H         -2.18500        8.13700        1.18700
H          0.53200        9.44400       -1.19400
C          0.12300        9.63000       -0.19300
H         -0.31700        6.73900        1.12400
C          0.62800       12.13000        0.45500
C          0.45100       13.54900        0.49900
O         -0.82000       13.91600        0.23800
O          1.34900       14.35400        0.68600
H         -0.79500       14.89300        0.23400
