39

O          1.51400       -0.67600        0.01000
C          0.32900       -0.04300        0.10500
O         -0.72600       -0.64300       -0.05200
C          0.39700        1.43500        0.33200
H          2.29900       -0.15400        0.23500
C         -0.77500        2.02300        0.63700
C         -0.88300        3.36100        0.64600
C          0.16700        4.16000        0.32200
C          1.37700        3.56100        0.16400
C          1.48700        2.21300        0.16100
C         -0.07900        5.57900       -0.18700
H         -1.88200        3.74900        0.81300
H         -1.67800        1.43100        0.79800
H          2.45700        1.79000       -0.07300
Cl         2.81700        4.47800       -0.17600
O          0.49700        6.74200        0.46300
C         -1.54600        7.44900       -0.33800
C         -1.53700        5.95800       -0.48200
C          0.22400        9.26400        0.00400
H         -2.28100        5.56100        0.21100
H         -1.99100        7.70000        0.63500
H         -2.12700        7.92700       -1.13000
H         -1.81600        5.64000       -1.49200
H          0.33200        7.68900       -1.36100
C         -0.06700        7.81700       -0.34100
H          0.40100        5.55900       -1.18000
C         -0.79300       10.16000       -0.03700
C         -0.58100       11.47700        0.07200
C          0.66700       11.96400        0.22700
C          1.69800       11.08700        0.31300
C          1.47000        9.75900        0.19900
C          0.79800       13.44900        0.24400
H         -1.45300       12.12800       -0.01600
H         -1.81900        9.86200       -0.20700
H          2.31400        9.06000        0.22000
Cl         3.34900       11.59800        0.50600
O         -0.38600       14.08300        0.42700
O          1.80200       14.11300        0.06400
H         -0.16200       15.03300        0.35300
