
 OpenBabel11042013073D

 36 38  0  0  1  0  0  0  0  0999 V2000
    1.2740   -0.9670   -0.0250 O   0  0  0  0  0  0  0  0  0  0  0  0
    0.0960   -0.3800    0.2600 C   0  0  0  0  0  0  0  0  0  0  0  0
   -0.9020   -1.0080    0.5770 O   0  0  0  0  0  0  0  0  0  0  0  0
    0.1160    1.1060    0.1270 C   0  0  1  0  0  0  0  0  0  0  0  0
    1.9490   -0.3900   -0.4180 H   0  0  0  0  0  0  0  0  0  0  0  0
   -1.0040    1.7400   -0.2620 C   0  0  0  0  0  0  0  0  0  0  0  0
   -1.0210    3.0830   -0.3760 C   0  0  0  0  0  0  0  0  0  0  0  0
    0.0550    3.8700   -0.0700 C   0  0  2  0  0  0  0  0  0  0  0  0
    1.1680    3.1920    0.3680 C   0  0  2  0  0  0  0  0  0  0  0  0
    1.1930    1.8420    0.4460 C   0  0  0  0  0  0  0  0  0  0  0  0
   -0.0830    5.3760   -0.1850 C   0  0  2  0  0  0  0  0  0  0  0  0
   -1.9630    3.5110   -0.7080 H   0  0  0  0  0  0  0  0  0  0  0  0
   -1.9060    1.1690   -0.4830 H   0  0  0  0  0  0  0  0  0  0  0  0
    2.0920    1.3530    0.8120 H   0  0  0  0  0  0  0  0  0  0  0  0
    2.6600    3.9090    0.9330 Cl  0  0  0  0  0  0  0  0  0  0  0  0
   -1.2740    6.0260   -0.1860 C   0  0  0  0  0  0  0  0  0  0  0  0
   -1.3610    7.3700   -0.2620 C   0  0  0  0  0  0  0  0  0  0  0  0
   -0.2670    8.1730   -0.3250 C   0  0  1  0  0  0  0  0  0  0  0  0
    0.9370    7.5410   -0.3660 C   0  0  1  0  0  0  0  0  0  0  0  0
    0.9910    6.1900   -0.3370 C   0  0  0  0  0  0  0  0  0  0  0  0
   -0.4860    9.6880   -0.4090 C   0  0  2  0  0  0  0  0  0  0  0  0
   -2.3590    7.8100   -0.2750 H   0  0  0  0  0  0  0  0  0  0  0  0
   -2.2160    5.4900   -0.1190 H   0  0  0  0  0  0  0  0  0  0  0  0
    1.9780    5.7660   -0.4440 H   0  0  0  0  0  0  0  0  0  0  0  0
    2.6240    8.3900   -0.4960 Br  0  0  0  0  0  0  0  0  0  0  0  0
    0.5680   10.6770    0.0290 C   0  0  0  0  0  0  0  0  0  0  0  0
   -0.2680   11.8010    0.3310 N   0  0  0  0  0  0  0  0  0  0  0  0
   -1.5350   11.4130    0.6410 N   0  0  0  0  0  0  0  0  0  0  0  0
   -1.6500   10.1740    0.4010 N   0  0  0  0  0  0  0  0  0  0  0  0
    0.1250   13.1000    0.1830 C   0  0  0  0  0  0  0  0  0  0  0  0
    1.2920   10.9300   -0.7490 H   0  0  0  0  0  0  0  0  0  0  0  0
    1.0720   10.3980    0.9620 H   0  0  0  0  0  0  0  0  0  0  0  0
   -0.7440    9.9000   -1.4570 H   0  0  0  0  0  0  0  0  0  0  0  0
   -0.8530   14.0080    0.3970 O   0  0  0  0  0  0  0  0  0  0  0  0
    1.2340   13.4890   -0.1530 O   0  0  0  0  0  0  0  0  0  0  0  0
   -0.4070   14.8570    0.1930 H   0  0  0  0  0  0  0  0  0  0  0  0
  1  5  1  0  0  0  0
  2  1  1  0  0  0  0
  3  2  2  0  0  0  0
  4  2  1  1  0  0  0
  4 10  5  0  0  0  0
  6  4  5  0  0  0  0
  6  7  5  0  0  0  0
  6 13  1  0  0  0  0
  7 12  1  0  0  0  0
  8  7  5  1  0  0  0
  8 11  1  0  0  0  0
  9  8  5  0  0  0  0
  9 15  1  1  0  0  0
 10  9  5  0  0  0  0
 10 14  1  0  0  0  0
 11 16  5  6  0  0  0
 11 20  5  0  0  0  0
 16 17  5  0  0  0  0
 16 23  1  0  0  0  0
 17 22  1  0  0  0  0
 18 17  5  6  0  0  0
 18 21  1  0  0  0  0
 19 18  5  0  0  0  0
 19 25  1  6  0  0  0
 20 19  5  0  0  0  0
 20 24  1  0  0  0  0
 21 29  1  0  0  0  0
 21 33  1  6  0  0  0
 26 21  1  0  0  0  0
 26 31  1  0  0  0  0
 26 32  1  0  0  0  0
 27 26  1  0  0  0  0
 28 27  1  0  0  0  0
 29 28  2  0  0  0  0
 30 27  1  0  0  0  0
 30 35  2  0  0  0  0
 34 30  1  0  0  0  0
 36 34  1  0  0  0  0
M  END
