36

O          1.27400       -0.96700       -0.02500
C          0.09600       -0.38000        0.26000
O         -0.90200       -1.00800        0.57700
C          0.11600        1.10600        0.12700
H          1.94900       -0.39000       -0.41800
C         -1.00400        1.74000       -0.26200
C         -1.02100        3.08300       -0.37600
C          0.05500        3.87000       -0.07000
C          1.16800        3.19200        0.36800
C          1.19300        1.84200        0.44600
C         -0.08300        5.37600       -0.18500
H         -1.96300        3.51100       -0.70800
H         -1.90600        1.16900       -0.48300
H          2.09200        1.35300        0.81200
Cl         2.66000        3.90900        0.93300
C         -1.27400        6.02600       -0.18600
C         -1.36100        7.37000       -0.26200
C         -0.26700        8.17300       -0.32500
C          0.93700        7.54100       -0.36600
C          0.99100        6.19000       -0.33700
C         -0.48600        9.68800       -0.40900
H         -2.35900        7.81000       -0.27500
H         -2.21600        5.49000       -0.11900
H          1.97800        5.76600       -0.44400
Br         2.62400        8.39000       -0.49600
C          0.56800       10.67700        0.02900
N         -0.26800       11.80100        0.33100
N         -1.53500       11.41300        0.64100
N         -1.65000       10.17400        0.40100
C          0.12500       13.10000        0.18300
H          1.29200       10.93000       -0.74900
H          1.07200       10.39800        0.96200
H         -0.74400        9.90000       -1.45700
O         -0.85300       14.00800        0.39700
O          1.23400       13.48900       -0.15300
H         -0.40700       14.85700        0.19300
