
 OpenBabel11042013033D

 29 30  0  0  1  0  0  0  0  0999 V2000
    1.1820   -0.2810   -0.1030 O   0  0  0  0  0  0  0  0  0  0  0  0
    0.0410    0.3900    0.1210 C   0  0  0  0  0  0  0  0  0  0  0  0
   -0.9290   -0.2570    0.4980 O   0  0  0  0  0  0  0  0  0  0  0  0
    0.0610    1.8990   -0.0760 C   0  0  1  0  0  0  0  0  0  0  0  0
    1.8130    0.1340   -0.7100 H   0  0  0  0  0  0  0  0  0  0  0  0
   -1.1470    2.5270   -0.0600 C   0  0  2  0  0  0  0  0  0  0  0  0
   -1.2120    3.8700   -0.0480 C   0  0  0  0  0  0  0  0  0  0  0  0
   -0.1220    4.6620   -0.1390 C   0  0  2  0  0  0  0  0  0  0  0  0
    1.0710    4.0480   -0.3510 C   0  0  1  0  0  0  0  0  0  0  0  0
    1.1880    2.6760   -0.2090 C   0  0  1  0  0  0  0  0  0  0  0  0
   -0.3660    6.1400    0.1740 C   0  0  1  0  0  0  0  0  0  0  0  0
   -2.1940    4.3360    0.0700 H   0  0  0  0  0  0  0  0  0  0  0  0
   -2.7160    1.7580    0.0170 Cl  0  0  0  0  0  0  0  0  0  0  0  0
    2.6200    2.1730   -0.0720 C   0  0  0  0  0  0  0  0  0  0  0  0
    2.6080    5.0650   -0.8660 Br  0  0  0  0  0  0  0  0  0  0  0  0
    2.7220    1.2820    0.5470 H   0  0  0  0  0  0  0  0  0  0  0  0
    3.2380    2.8840    0.4940 H   0  0  0  0  0  0  0  0  0  0  0  0
    3.0780    2.0140   -1.0540 H   0  0  0  0  0  0  0  0  0  0  0  0
    0.6470    7.2560    0.1290 C   0  0  0  0  0  0  0  0  0  0  0  0
   -0.2580    8.3690    0.0750 N   0  0  0  0  0  0  0  0  0  0  0  0
   -1.4650    8.0080   -0.4530 N   0  0  0  0  0  0  0  0  0  0  0  0
   -1.5070    6.7480   -0.5610 N   0  0  0  0  0  0  0  0  0  0  0  0
    0.1350    9.6740    0.1620 C   0  0  0  0  0  0  0  0  0  0  0  0
    1.2280    7.3260   -0.7910 H   0  0  0  0  0  0  0  0  0  0  0  0
    1.3040    7.2990    1.0050 H   0  0  0  0  0  0  0  0  0  0  0  0
   -0.6910    6.1040    1.2310 H   0  0  0  0  0  0  0  0  0  0  0  0
   -0.8580   10.5530   -0.0850 O   0  0  0  0  0  0  0  0  0  0  0  0
    1.2570   10.0780    0.4250 O   0  0  0  0  0  0  0  0  0  0  0  0
   -0.4230   11.4240   -0.0220 H   0  0  0  0  0  0  0  0  0  0  0  0
  1  5  1  0  0  0  0
  2  1  1  0  0  0  0
  3  2  2  0  0  0  0
  4  2  1  1  0  0  0
  4 10  5  0  0  0  0
  6  4  5  0  0  0  0
  6  7  5  0  0  0  0
  6 13  1  1  0  0  0
  7 12  1  0  0  0  0
  8  7  5  1  0  0  0
  8 11  1  0  0  0  0
  9  8  5  0  0  0  0
  9 15  1  6  0  0  0
 10  9  5  0  0  0  0
 10 14  1  1  0  0  0
 11 22  1  0  0  0  0
 11 26  1  1  0  0  0
 14 16  1  0  0  0  0
 14 17  1  0  0  0  0
 14 18  1  0  0  0  0
 19 11  1  0  0  0  0
 19 24  1  0  0  0  0
 19 25  1  0  0  0  0
 20 19  1  0  0  0  0
 21 20  1  0  0  0  0
 22 21  2  0  0  0  0
 23 20  1  0  0  0  0
 23 28  2  0  0  0  0
 27 23  1  0  0  0  0
 29 27  1  0  0  0  0
M  END
