41

O          1.54600       -0.65800        0.42300
C          0.44900       -0.01700       -0.01200
O         -0.46300       -0.66200       -0.51000
C          0.37800        1.48400        0.11800
H          2.35000       -0.20100        0.73000
C         -0.86500        2.02800        0.23800
C         -1.01200        3.36900        0.18900
C          0.02600        4.22000        0.02000
C          1.25900        3.66900       -0.01500
C          1.44200        2.32500        0.02500
C         -0.19900        5.69200       -0.34100
H         -2.03100        3.75200        0.21500
C         -2.08900        1.27100        0.36400
C          2.77700        1.84800       -0.09500
H          2.11900        4.33100       -0.14300
N         -3.12900        0.77700        0.47700
O          0.45800        6.74600        0.41800
C         -1.55900        7.64400       -0.42100
C         -1.65200        6.14400       -0.37800
C          0.26700        9.35000        0.25900
H         -2.20600        5.73200       -1.22500
H         -1.93400        8.06700       -1.35700
H         -2.18200        8.01900        0.39500
H         -2.17400        5.87000        0.54800
H          0.38200        7.91700       -1.24400
C         -0.06700        7.93800       -0.23700
H          0.20000        5.76900       -1.36500
N          3.82700        1.35800       -0.11100
C         -0.71200       10.22600        0.60300
C         -0.48500       11.54700        0.69100
C          0.74500       12.03500        0.44700
C          1.76100       11.17900        0.21400
C          1.52200        9.85100        0.11800
C          0.97400       13.50300        0.35600
H         -1.32100       12.21200        0.89600
H         -1.74400        9.92200        0.73500
H          2.34400        9.19300       -0.15500
H          2.76500       11.55900        0.03100
O         -0.17000       14.19300        0.15500
O          2.05200       14.07100        0.34400
H          0.12300       15.11500        0.00300
