26

O          1.06300        0.04700       -0.11100
C         -0.07100        0.76300       -0.02300
O         -1.14000        0.16400        0.03900
C          0.02600        2.27800       -0.02300
H          1.88200        0.51100       -0.31900
C         -1.21400        2.83000       -0.05000
C         -1.39900        4.15800       -0.04600
C         -0.33800        4.98000       -0.03800
C          0.91400        4.46400       -0.01300
C          1.11700        3.10900        0.01800
C         -0.54100        6.39300       -0.04200
H         -2.41100        4.55600       -0.05400
H         -2.11300        2.21300       -0.06300
C          2.53200        2.59400        0.16100
O          1.96700        5.37800       -0.00900
H          2.89100        2.18300       -0.78900
H          3.25600        3.35000        0.47400
H          2.59100        1.84300        0.95500
H          2.82800        5.02200       -0.26600
C         -0.61300        7.59300       -0.03700
C         -0.59300        9.12400       -0.02700
C         -0.51000       10.32000       -0.02200
C         -0.37000       11.74500       -0.01500
O         -1.53700       12.41800        0.00100
O          0.70600       12.31800       -0.02200
H         -1.25500       13.35200        0.00700
