
 OpenBabel11042013073D

 26 26  0  0  1  0  0  0  0  0999 V2000
    1.0630    0.0470   -0.1110 O   0  0  0  0  0  0  0  0  0  0  0  0
   -0.0710    0.7630   -0.0230 C   0  0  0  0  0  0  0  0  0  0  0  0
   -1.1400    0.1640    0.0390 O   0  0  0  0  0  0  0  0  0  0  0  0
    0.0260    2.2780   -0.0230 C   0  0  1  0  0  0  0  0  0  0  0  0
    1.8820    0.5110   -0.3190 H   0  0  0  0  0  0  0  0  0  0  0  0
   -1.2140    2.8300   -0.0500 C   0  0  0  0  0  0  0  0  0  0  0  0
   -1.3990    4.1580   -0.0460 C   0  0  0  0  0  0  0  0  0  0  0  0
   -0.3380    4.9800   -0.0380 C   0  0  2  0  0  0  0  0  0  0  0  0
    0.9140    4.4640   -0.0130 C   0  0  2  0  0  0  0  0  0  0  0  0
    1.1170    3.1090    0.0180 C   0  0  1  0  0  0  0  0  0  0  0  0
   -0.5410    6.3930   -0.0420 C   0  0  0  0  0  0  0  0  0  0  0  0
   -2.4110    4.5560   -0.0540 H   0  0  0  0  0  0  0  0  0  0  0  0
   -2.1130    2.2130   -0.0630 H   0  0  0  0  0  0  0  0  0  0  0  0
    2.5320    2.5940    0.1610 C   0  0  0  0  0  0  0  0  0  0  0  0
    1.9670    5.3780   -0.0090 O   0  0  0  0  0  0  0  0  0  0  0  0
    2.8910    2.1830   -0.7890 H   0  0  0  0  0  0  0  0  0  0  0  0
    3.2560    3.3500    0.4740 H   0  0  0  0  0  0  0  0  0  0  0  0
    2.5910    1.8430    0.9550 H   0  0  0  0  0  0  0  0  0  0  0  0
    2.8280    5.0220   -0.2660 H   0  0  0  0  0  0  0  0  0  0  0  0
   -0.6130    7.5930   -0.0370 C   0  0  0  0  0  0  0  0  0  0  0  0
   -0.5930    9.1240   -0.0270 C   0  0  0  0  0  0  0  0  0  0  0  0
   -0.5100   10.3200   -0.0220 C   0  0  0  0  0  0  0  0  0  0  0  0
   -0.3700   11.7450   -0.0150 C   0  0  0  0  0  0  0  0  0  0  0  0
   -1.5370   12.4180    0.0010 O   0  0  0  0  0  0  0  0  0  0  0  0
    0.7060   12.3180   -0.0220 O   0  0  0  0  0  0  0  0  0  0  0  0
   -1.2550   13.3520    0.0070 H   0  0  0  0  0  0  0  0  0  0  0  0
  1  5  1  0  0  0  0
  2  1  1  0  0  0  0
  3  2  2  0  0  0  0
  4  2  1  1  0  0  0
  4 10  5  0  0  0  0
  6  4  5  0  0  0  0
  6  7  5  0  0  0  0
  6 13  1  0  0  0  0
  7 12  1  0  0  0  0
  8  7  5  0  0  0  0
  8 11  1  1  0  0  0
  9  8  5  0  0  0  0
  9 15  1  1  0  0  0
 10  9  5  0  0  0  0
 10 14  1  1  0  0  0
 14 16  1  0  0  0  0
 14 17  1  0  0  0  0
 14 18  1  0  0  0  0
 15 19  1  0  0  0  0
 20 11  3  0  0  0  0
 21 20  1  0  0  0  0
 22 21  3  0  0  0  0
 23 22  1  0  0  0  0
 23 25  2  0  0  0  0
 24 23  1  0  0  0  0
 26 24  1  0  0  0  0
M  END
