42

O          1.51400       -0.64000        0.11300
C          0.27800       -0.11100        0.29400
O         -0.68000       -0.84800        0.46800
C          0.22500        1.39100        0.24800
H          2.19900       -0.03200       -0.20900
C         -0.95300        2.02200        0.01800
C         -0.98000        3.36800       -0.08600
C          0.13000        4.13700        0.03300
C          1.27800        3.48400        0.33800
C          1.33000        2.14400        0.44400
C          0.09900        5.61500       -0.20300
H         -1.94100        3.82100       -0.30000
O         -2.13400        1.32100       -0.13700
H          2.29500        1.71200        0.68800
H          2.21200        4.01600        0.49500
C         -1.06300        6.31900       -0.26700
C         -1.08100        7.64300       -0.51900
C          0.07000        8.31000       -0.70000
C          1.23500        7.64200       -0.63900
C          1.24100        6.31600       -0.40100
C          0.08400        9.71800       -0.82000
H         -2.03300        8.17100       -0.55000
H         -2.03100        5.85500       -0.11100
H          2.22300        5.85900       -0.37300
H          2.17700        8.17400       -0.76300
H         -2.92600        1.88200       -0.14900
C          0.12500       10.88500       -0.55800
C          0.13100       12.11700        0.20700
O          0.73400       13.22800       -0.46300
C         -1.23200       14.07000        0.44700
C         -1.27600       12.56200        0.58000
C          0.51400       15.72800       -0.38600
H         -2.04800       12.14600       -0.07800
H         -1.81000       14.37600       -0.43400
H         -1.65900       14.57900        1.31700
H         -1.52000       12.24200        1.59900
H          0.75600       14.39000        1.22800
C          0.24600       14.37100        0.25400
H          0.71200       11.94900        1.12100
O         -0.31500       16.69300        0.07100
O          1.41300       16.01800       -1.15800
H         -0.00300       17.50200       -0.38700
