
 OpenBabel11042013073D

 41 43  0  0  1  0  0  0  0  0999 V2000
    1.3080   -0.5030   -0.0620 O   0  0  0  0  0  0  0  0  0  0  0  0
    0.0790    0.0560   -0.0110 C   0  0  0  0  0  0  0  0  0  0  0  0
   -0.9300   -0.6310   -0.1260 O   0  0  0  0  0  0  0  0  0  0  0  0
    0.0250    1.5280    0.1610 C   0  0  2  0  0  0  0  0  0  0  0  0
    2.0710    0.1000   -0.0100 H   0  0  0  0  0  0  0  0  0  0  0  0
   -1.2070    2.1040    0.1140 C   0  0  0  0  0  0  0  0  0  0  0  0
   -1.3440    3.4410    0.1510 C   0  0  1  0  0  0  0  0  0  0  0  0
   -0.2210    4.1900    0.2990 C   0  0  1  0  0  0  0  0  0  0  0  0
    0.9900    3.6060    0.4520 C   0  0  0  0  0  0  0  0  0  0  0  0
    1.1220    2.2820    0.3540 C   0  0  0  0  0  0  0  0  0  0  0  0
   -0.2450    5.6680    0.1590 C   0  0  1  0  0  0  0  0  0  0  0  0
   -2.6600    4.0180   -0.0150 C   0  0  0  0  0  0  0  0  0  0  0  0
   -2.0870    1.4910   -0.0500 H   0  0  0  0  0  0  0  0  0  0  0  0
    2.1410    1.9180    0.4130 H   0  0  0  0  0  0  0  0  0  0  0  0
    1.9070    4.1740    0.5880 H   0  0  0  0  0  0  0  0  0  0  0  0
    1.0740    6.2140   -0.3240 C   0  0  0  0  0  0  0  0  0  0  0  0
    0.5510    7.3760   -0.9420 N   0  0  0  0  0  0  0  0  0  0  0  0
   -0.6360    7.0660   -1.5530 N   0  0  0  0  0  0  0  0  0  0  0  0
   -1.1200    6.0690   -0.9730 N   0  0  0  0  0  0  0  0  0  0  0  0
    0.5400    8.5110   -0.1810 C   0  0  2  0  0  0  0  0  0  0  0  0
    1.8110    6.4010    0.4640 H   0  0  0  0  0  0  0  0  0  0  0  0
    1.5430    5.6390   -1.1350 H   0  0  0  0  0  0  0  0  0  0  0  0
   -0.5730    6.1590    1.0860 H   0  0  0  0  0  0  0  0  0  0  0  0
   -3.7160    4.4920   -0.1590 N   0  0  0  0  0  0  0  0  0  0  0  0
   -0.6210    9.1450    0.0780 C   0  0  0  0  0  0  0  0  0  0  0  0
   -0.5760   10.4430    0.3740 C   0  0  0  0  0  0  0  0  0  0  0  0
    0.6180   11.0640    0.4090 C   0  0  1  0  0  0  0  0  0  0  0  0
    1.7650   10.3430    0.4570 C   0  0  0  0  0  0  0  0  0  0  0  0
    1.7250    9.0380    0.1780 C   0  0  0  0  0  0  0  0  0  0  0  0
    0.7450   12.4730    0.2240 C   0  0  0  0  0  0  0  0  0  0  0  0
   -1.5340   10.9510    0.4070 H   0  0  0  0  0  0  0  0  0  0  0  0
   -1.5910    8.6790   -0.0730 H   0  0  0  0  0  0  0  0  0  0  0  0
    2.6540    8.4900    0.0800 H   0  0  0  0  0  0  0  0  0  0  0  0
    2.7400   10.8090    0.5530 H   0  0  0  0  0  0  0  0  0  0  0  0
   -0.2870   13.2820   -0.0180 C   0  0  0  0  0  0  0  0  0  0  0  0
    0.0070   14.6880   -0.1520 C   0  0  0  0  0  0  0  0  0  0  0  0
   -1.3240   12.9660   -0.0630 H   0  0  0  0  0  0  0  0  0  0  0  0
    1.7630   12.8570    0.1320 H   0  0  0  0  0  0  0  0  0  0  0  0
   -1.1520   15.3520   -0.1400 O   0  0  0  0  0  0  0  0  0  0  0  0
    1.0840   15.2650   -0.1680 O   0  0  0  0  0  0  0  0  0  0  0  0
   -0.8690   16.2770   -0.0570 H   0  0  0  0  0  0  0  0  0  0  0  0
  1  5  1  0  0  0  0
  2  1  1  0  0  0  0
  3  2  2  0  0  0  0
  4  2  1  6  0  0  0
  4 10  5  0  0  0  0
  6  4  5  0  0  0  0
  6  7  5  0  0  0  0
  6 13  1  0  0  0  0
  7 12  1  6  0  0  0
  8  7  5  0  0  0  0
  8  9  5  6  0  0  0
  8 11  1  0  0  0  0
  9 15  1  0  0  0  0
 10  9  5  0  0  0  0
 10 14  1  0  0  0  0
 11 19  1  0  0  0  0
 11 23  1  1  0  0  0
 12 24  3  0  0  0  0
 16 11  1  0  0  0  0
 16 21  1  0  0  0  0
 16 22  1  0  0  0  0
 17 16  1  0  0  0  0
 18 17  1  0  0  0  0
 19 18  2  0  0  0  0
 20 17  1  6  0  0  0
 20 29  5  0  0  0  0
 25 20  5  0  0  0  0
 25 26  5  0  0  0  0
 25 32  1  0  0  0  0
 26 31  1  0  0  0  0
 27 26  5  0  0  0  0
 27 30  1  6  0  0  0
 28 27  5  0  0  0  0
 28 34  1  0  0  0  0
 29 28  5  0  0  0  0
 29 33  1  0  0  0  0
 30 38  1  0  0  0  0
 35 30  2  0  0  0  0
 35 37  1  0  0  0  0
 36 35  1  0  0  0  0
 36 40  2  0  0  0  0
 39 36  1  0  0  0  0
 41 39  1  0  0  0  0
M  END
