41

O          1.30800       -0.50300       -0.06200
C          0.07900        0.05600       -0.01100
O         -0.93000       -0.63100       -0.12600
C          0.02500        1.52800        0.16100
H          2.07100        0.10000       -0.01000
C         -1.20700        2.10400        0.11400
C         -1.34400        3.44100        0.15100
C         -0.22100        4.19000        0.29900
C          0.99000        3.60600        0.45200
C          1.12200        2.28200        0.35400
C         -0.24500        5.66800        0.15900
C         -2.66000        4.01800       -0.01500
H         -2.08700        1.49100       -0.05000
H          2.14100        1.91800        0.41300
H          1.90700        4.17400        0.58800
C          1.07400        6.21400       -0.32400
N          0.55100        7.37600       -0.94200
N         -0.63600        7.06600       -1.55300
N         -1.12000        6.06900       -0.97300
C          0.54000        8.51100       -0.18100
H          1.81100        6.40100        0.46400
H          1.54300        5.63900       -1.13500
H         -0.57300        6.15900        1.08600
N         -3.71600        4.49200       -0.15900
C         -0.62100        9.14500        0.07800
C         -0.57600       10.44300        0.37400
C          0.61800       11.06400        0.40900
C          1.76500       10.34300        0.45700
C          1.72500        9.03800        0.17800
C          0.74500       12.47300        0.22400
H         -1.53400       10.95100        0.40700
H         -1.59100        8.67900       -0.07300
H          2.65400        8.49000        0.08000
H          2.74000       10.80900        0.55300
C         -0.28700       13.28200       -0.01800
C          0.00700       14.68800       -0.15200
H         -1.32400       12.96600       -0.06300
H          1.76300       12.85700        0.13200
O         -1.15200       15.35200       -0.14000
O          1.08400       15.26500       -0.16800
H         -0.86900       16.27700       -0.05700
