49

O          1.10200        0.64100       -0.14800
C         -0.01200        1.39500       -0.23300
O         -1.11400        0.87000       -0.32000
C          0.19100        2.88300       -0.17300
H          1.94100        1.10400       -0.00900
C         -0.94200        3.60500       -0.12100
C         -0.89000        4.94200       -0.01400
C          0.27200        5.64800        0.05200
C          1.41700        4.91000       -0.04100
C          1.36400        3.55300       -0.15300
C          0.15700        7.17900        0.31600
H         -1.86100        5.42900        0.04600
H         -1.91900        3.12100       -0.14300
H          2.30100        3.01300       -0.20700
Br         3.14400        5.66400        0.04500
C          1.12300        8.32100       -0.11100
C          0.30200        9.54700        0.34100
N         -1.05500        9.16900       -0.12400
N         -1.12500        7.73500       -0.18800
C          0.59700       11.03700        0.08900
H         -1.89200        7.40900        0.40300
H         -1.18400        9.55800       -1.06400
H          2.07500        8.29000        0.42600
H          0.28100        9.49300        1.44200
H          1.31200        8.32000       -1.19100
H          0.11200        7.22700        1.41700
C         -0.45500       11.88900        0.04700
C         -0.31300       13.21600       -0.06200
C          0.89900       13.81800       -0.12300
C          1.96200       12.96200       -0.12100
C          1.82000       11.61300       -0.02600
C          0.99700       15.32900       -0.14000
H         -1.24300       13.77000       -0.06000
H         -1.47400       11.52100        0.14300
H          2.71500       10.99600        0.00600
H          2.97700       13.34500       -0.17100
C         -0.11900       16.11400       -0.14100
C         -0.07300       17.46000       -0.10900
C          1.11100       18.09200       -0.07100
C          2.24000       17.35200       -0.08100
C          2.17900       16.00100       -0.11400
C          1.20600       19.57700       -0.01300
H         -1.00600       18.01700       -0.10000
H         -1.12000       15.70300       -0.16100
H          3.12700       15.47300       -0.10300
H          3.21000       17.84400       -0.05000
O          0.00500       20.19100       -0.00100
O          2.23400       20.23300        0.03000
H          0.22700       21.14400        0.04500
