
 OpenBabel11042013073D

 28 28  0  0  1  0  0  0  0  0999 V2000
    1.3980    0.0790   -0.0860 O   0  0  0  0  0  0  0  0  0  0  0  0
    0.2420    0.7670   -0.0430 C   0  0  0  0  0  0  0  0  0  0  0  0
   -0.7990    0.1260   -0.0480 O   0  0  0  0  0  0  0  0  0  0  0  0
    0.3210    2.2930   -0.0060 C   0  0  1  0  0  0  0  0  0  0  0  0
    2.2090    0.6130   -0.0590 H   0  0  0  0  0  0  0  0  0  0  0  0
   -0.8720    2.9830   -0.0300 C   0  0  1  0  0  0  0  0  0  0  0  0
   -0.8370    4.3360    0.0120 C   0  0  0  0  0  0  0  0  0  0  0  0
    0.3020    5.0350    0.0280 C   0  0  1  0  0  0  0  0  0  0  0  0
    1.4600    4.3640    0.0420 C   0  0  0  0  0  0  0  0  0  0  0  0
    1.4920    3.0090    0.0490 C   0  0  2  0  0  0  0  0  0  0  0  0
    0.2480    6.4580    0.0210 C   0  0  0  0  0  0  0  0  0  0  0  0
   -1.7550    4.9200    0.0200 H   0  0  0  0  0  0  0  0  0  0  0  0
   -2.2560    2.3190   -0.1310 C   0  0  0  0  0  0  0  0  0  0  0  0
    3.2470    2.2940    0.1280 Br  0  0  0  0  0  0  0  0  0  0  0  0
    2.3870    4.9330    0.0520 H   0  0  0  0  0  0  0  0  0  0  0  0
    0.1180    7.6520   -0.0000 C   0  0  0  0  0  0  0  0  0  0  0  0
   -0.0730    9.1730   -0.0230 C   0  0  0  0  0  0  0  0  0  0  0  0
   -0.1670   10.3710   -0.0200 C   0  0  0  0  0  0  0  0  0  0  0  0
   -0.1990   11.8030    0.0010 C   0  0  0  0  0  0  0  0  0  0  0  0
   -3.4840    3.2350   -0.1540 C   0  0  0  0  0  0  0  0  0  0  0  0
   -3.4360    3.9440   -0.9880 H   0  0  0  0  0  0  0  0  0  0  0  0
   -3.5720    3.7940    0.7850 H   0  0  0  0  0  0  0  0  0  0  0  0
   -4.3980    2.6470   -0.2780 H   0  0  0  0  0  0  0  0  0  0  0  0
   -2.2890    1.7440   -1.0650 H   0  0  0  0  0  0  0  0  0  0  0  0
   -2.4000    1.6380    0.7150 H   0  0  0  0  0  0  0  0  0  0  0  0
   -1.4320   12.3390   -0.0160 O   0  0  0  0  0  0  0  0  0  0  0  0
    0.8070   12.4910    0.0350 O   0  0  0  0  0  0  0  0  0  0  0  0
   -1.2590   13.3030    0.0090 H   0  0  0  0  0  0  0  0  0  0  0  0
  1  5  1  0  0  0  0
  2  1  1  0  0  0  0
  3  2  2  0  0  0  0
  4  2  1  1  0  0  0
  4 10  5  0  0  0  0
  6  4  5  0  0  0  0
  6  7  5  0  0  0  0
  6 13  1  6  0  0  0
  7 12  1  0  0  0  0
  8  7  5  0  0  0  0
  8 11  1  6  0  0  0
  9  8  5  0  0  0  0
  9 15  1  0  0  0  0
 10  9  5  0  0  0  0
 10 14  1  6  0  0  0
 13 24  1  0  0  0  0
 13 25  1  0  0  0  0
 16 11  3  0  0  0  0
 17 16  1  0  0  0  0
 18 17  3  0  0  0  0
 19 18  1  0  0  0  0
 19 27  2  0  0  0  0
 20 21  1  0  0  0  0
 20 22  1  0  0  0  0
 20 23  1  0  0  0  0
 20 13  1  0  0  0  0
 26 19  1  0  0  0  0
 28 26  1  0  0  0  0
M  END
