
 OpenBabel11042013033D

 26 26  0  0  1  0  0  0  0  0999 V2000
    0.8330    0.2780   -0.3420 O   0  0  0  0  0  0  0  0  0  0  0  0
   -0.3130    0.9640   -0.1680 C   0  0  0  0  0  0  0  0  0  0  0  0
   -1.3700    0.3590   -0.0920 O   0  0  0  0  0  0  0  0  0  0  0  0
   -0.1580    2.4460   -0.0900 C   0  0  1  0  0  0  0  0  0  0  0  0
    0.5470   -0.6540   -0.4220 H   0  0  0  0  0  0  0  0  0  0  0  0
   -1.3060    3.1600   -0.0840 C   0  0  0  0  0  0  0  0  0  0  0  0
   -1.3090    4.5090   -0.0200 C   0  0  2  0  0  0  0  0  0  0  0  0
   -0.1320    5.1940    0.0310 C   0  0  1  0  0  0  0  0  0  0  0  0
    1.0240    4.4650    0.0590 C   0  0  2  0  0  0  0  0  0  0  0  0
    1.0120    3.1150   -0.0080 C   0  0  1  0  0  0  0  0  0  0  0  0
   -0.0070    6.6650    0.0530 C   0  0  0  0  0  0  0  0  0  0  0  0
   -2.5290    5.1690    0.0110 O   0  0  0  0  0  0  0  0  0  0  0  0
   -2.2590    2.6330   -0.1410 H   0  0  0  0  0  0  0  0  0  0  0  0
    2.2730    2.4590    0.0460 N   0  0  0  0  0  0  0  0  0  0  0  0
    2.2770    5.0790    0.1860 O   0  0  0  0  0  0  0  0  0  0  0  0
    2.2900    5.6850    0.9450 H   0  0  0  0  0  0  0  0  0  0  0  0
   -3.2800    4.5680    0.1560 H   0  0  0  0  0  0  0  0  0  0  0  0
   -0.9200    7.6480    0.0360 C   0  0  0  0  0  0  0  0  0  0  0  0
   -0.4100    9.0300    0.1030 C   0  0  0  0  0  0  0  0  0  0  0  0
   -1.9890    7.5070   -0.0120 H   0  0  0  0  0  0  0  0  0  0  0  0
    1.0260    7.0160    0.0510 H   0  0  0  0  0  0  0  0  0  0  0  0
    3.0630    3.0110    0.3620 H   0  0  0  0  0  0  0  0  0  0  0  0
    2.2960    1.4670    0.2540 H   0  0  0  0  0  0  0  0  0  0  0  0
   -1.4010    9.9230   -0.0330 O   0  0  0  0  0  0  0  0  0  0  0  0
    0.7430    9.3810    0.2690 O   0  0  0  0  0  0  0  0  0  0  0  0
   -0.9310   10.7820    0.0290 H   0  0  0  0  0  0  0  0  0  0  0  0
  1  5  1  0  0  0  0
  2  1  1  0  0  0  0
  3  2  2  0  0  0  0
  4  2  1  1  0  0  0
  4 10  5  0  0  0  0
  6  4  5  0  0  0  0
  6  7  5  0  0  0  0
  6 13  1  0  0  0  0
  7 12  1  1  0  0  0
  8  7  5  0  0  0  0
  8 11  1  6  0  0  0
  9  8  5  0  0  0  0
  9 15  1  1  0  0  0
 10  9  5  0  0  0  0
 10 14  1  1  0  0  0
 11 21  1  0  0  0  0
 12 17  1  0  0  0  0
 14 22  1  0  0  0  0
 14 23  1  0  0  0  0
 15 16  1  0  0  0  0
 18 11  2  0  0  0  0
 18 20  1  0  0  0  0
 19 18  1  0  0  0  0
 19 25  2  0  0  0  0
 24 19  1  0  0  0  0
 26 24  1  0  0  0  0
M  END
