26

O          0.83300        0.27800       -0.34200
C         -0.31300        0.96400       -0.16800
O         -1.37000        0.35900       -0.09200
C         -0.15800        2.44600       -0.09000
H          0.54700       -0.65400       -0.42200
C         -1.30600        3.16000       -0.08400
C         -1.30900        4.50900       -0.02000
C         -0.13200        5.19400        0.03100
C          1.02400        4.46500        0.05900
C          1.01200        3.11500       -0.00800
C         -0.00700        6.66500        0.05300
O         -2.52900        5.16900        0.01100
H         -2.25900        2.63300       -0.14100
N          2.27300        2.45900        0.04600
O          2.27700        5.07900        0.18600
H          2.29000        5.68500        0.94500
H         -3.28000        4.56800        0.15600
C         -0.92000        7.64800        0.03600
C         -0.41000        9.03000        0.10300
H         -1.98900        7.50700       -0.01200
H          1.02600        7.01600        0.05100
H          3.06300        3.01100        0.36200
H          2.29600        1.46700        0.25400
O         -1.40100        9.92300       -0.03300
O          0.74300        9.38100        0.26900
H         -0.93100       10.78200        0.02900
