39

O          1.15900        0.30600       -0.26500
C         -0.09200        0.77700       -0.48300
O         -0.99000       -0.01800       -0.71700
C         -0.25600        2.28900       -0.36100
H          1.80800        0.92700        0.10100
C         -1.46500        2.87800       -0.08000
C         -1.50100        4.24600        0.06000
C         -0.38400        5.02600       -0.14100
C          0.78500        4.40800       -0.45600
C          0.83200        3.06600       -0.56600
C         -0.48400        6.55300       -0.00100
C         -2.79600        4.93500        0.46500
C         -2.70500        1.94700        0.00400
H          1.78500        2.63900       -0.86000
C          2.76400        5.41000        0.37700
H          3.19300        6.40600        0.22000
H          2.20700        5.42100        1.32000
H          3.59000        4.69700        0.43000
O          1.93600        5.12200       -0.75300
C          0.60800        7.57400       -0.24400
N         -0.23100        8.73000       -0.45700
N         -1.45600        8.37700       -0.93100
N         -1.55700        7.12100       -0.87400
C          0.06500       10.00400       -0.06200
H          1.18000        7.42300       -1.16400
H          1.27100        7.72700        0.61200
H         -0.78000        6.71700        1.04700
C         -4.16500        2.38800        0.12600
H         -4.82000        1.52800       -0.05600
H         -4.40800        2.73400        1.13500
H         -4.43600        3.14400       -0.61400
H         -2.72200        1.39200       -0.94300
H         -2.53600        1.23700        0.82300
H         -3.44200        5.07600       -0.40800
H         -2.66700        5.91200        0.93300
H         -3.30500        4.39100        1.25800
O         -0.95900       10.87200       -0.19600
O          1.12000       10.38300        0.42500
H         -0.60900       11.71000        0.16600
