
 OpenBabel11042013073D

 29 29  0  0  1  0  0  0  0  0999 V2000
    1.7060    0.9990    0.1170 O   0  0  0  0  0  0  0  0  0  0  0  0
    0.4260    1.4100   -0.0100 C   0  0  0  0  0  0  0  0  0  0  0  0
   -0.4350    0.5600   -0.1300 O   0  0  0  0  0  0  0  0  0  0  0  0
    0.2730    2.9000   -0.0810 C   0  0  2  0  0  0  0  0  0  0  0  0
    1.6330    0.0230    0.0620 H   0  0  0  0  0  0  0  0  0  0  0  0
   -0.8740    3.6120    0.1610 C   0  0  2  0  0  0  0  0  0  0  0  0
   -0.8360    4.9670    0.0060 C   0  0  1  0  0  0  0  0  0  0  0  0
    0.3000    5.6230   -0.3410 C   0  0  1  0  0  0  0  0  0  0  0  0
    1.4170    4.8990   -0.5410 C   0  0  0  0  0  0  0  0  0  0  0  0
    1.4030    3.5650   -0.4210 C   0  0  0  0  0  0  0  0  0  0  0  0
    0.3770    6.9890   -0.5260 N   0  0  0  0  0  0  0  0  0  0  0  0
   -2.0350    5.7380    0.2000 C   0  0  0  0  0  0  0  0  0  0  0  0
   -2.6990    1.9790    0.0290 C   0  0  0  0  0  0  0  0  0  0  0  0
    2.3440    3.0450   -0.6010 H   0  0  0  0  0  0  0  0  0  0  0  0
    2.3470    5.4010   -0.8030 H   0  0  0  0  0  0  0  0  0  0  0  0
   -2.3960    1.8310   -1.0110 H   0  0  0  0  0  0  0  0  0  0  0  0
   -2.5260    1.0920    0.6440 H   0  0  0  0  0  0  0  0  0  0  0  0
   -3.7800    2.1530    0.0450 H   0  0  0  0  0  0  0  0  0  0  0  0
   -2.0670    3.0930    0.6420 O   0  0  0  0  0  0  0  0  0  0  0  0
    0.3550    7.6590    0.5280 N   0  0  0  0  0  0  0  0  0  0  0  0
    0.4980    9.0020    0.3230 C   0  0  0  0  0  0  0  0  0  0  0  0
   -2.9980    6.3720    0.3280 N   0  0  0  0  0  0  0  0  0  0  0  0
   -0.5310    9.8540    0.2480 C   0  0  0  0  0  0  0  0  0  0  0  0
   -0.2480   11.2770    0.0660 C   0  0  0  0  0  0  0  0  0  0  0  0
   -1.5610    9.5290    0.3190 H   0  0  0  0  0  0  0  0  0  0  0  0
    1.5240    9.3540    0.2490 H   0  0  0  0  0  0  0  0  0  0  0  0
   -1.3890   11.9800    0.0160 O   0  0  0  0  0  0  0  0  0  0  0  0
    0.8440   11.8040   -0.0230 O   0  0  0  0  0  0  0  0  0  0  0  0
   -1.0930   12.9080   -0.0930 H   0  0  0  0  0  0  0  0  0  0  0  0
  1  5  1  0  0  0  0
  2  1  1  0  0  0  0
  3  2  2  0  0  0  0
  4  2  1  6  0  0  0
  4 10  5  0  0  0  0
  6  4  5  0  0  0  0
  6  7  5  0  0  0  0
  6 19  1  1  0  0  0
  7 12  1  6  0  0  0
  8  7  5  0  0  0  0
  8 11  1  6  0  0  0
  9  8  5  0  0  0  0
  9 15  1  0  0  0  0
 10  9  5  0  0  0  0
 10 14  1  0  0  0  0
 12 22  3  0  0  0  0
 13 16  1  0  0  0  0
 13 17  1  0  0  0  0
 13 18  1  0  0  0  0
 13 19  1  0  0  0  0
 20 11  2  0  0  0  0
 21 20  1  0  0  0  0
 21 26  1  0  0  0  0
 23 21  2  0  0  0  0
 23 25  1  0  0  0  0
 24 23  1  0  0  0  0
 24 28  2  0  0  0  0
 27 24  1  0  0  0  0
 29 27  1  0  0  0  0
M  END
