29

O          1.70600        0.99900        0.11700
C          0.42600        1.41000       -0.01000
O         -0.43500        0.56000       -0.13000
C          0.27300        2.90000       -0.08100
H          1.63300        0.02300        0.06200
C         -0.87400        3.61200        0.16100
C         -0.83600        4.96700        0.00600
C          0.30000        5.62300       -0.34100
C          1.41700        4.89900       -0.54100
C          1.40300        3.56500       -0.42100
N          0.37700        6.98900       -0.52600
C         -2.03500        5.73800        0.20000
C         -2.69900        1.97900        0.02900
H          2.34400        3.04500       -0.60100
H          2.34700        5.40100       -0.80300
H         -2.39600        1.83100       -1.01100
H         -2.52600        1.09200        0.64400
H         -3.78000        2.15300        0.04500
O         -2.06700        3.09300        0.64200
N          0.35500        7.65900        0.52800
C          0.49800        9.00200        0.32300
N         -2.99800        6.37200        0.32800
C         -0.53100        9.85400        0.24800
C         -0.24800       11.27700        0.06600
H         -1.56100        9.52900        0.31900
H          1.52400        9.35400        0.24900
O         -1.38900       11.98000        0.01600
O          0.84400       11.80400       -0.02300
H         -1.09300       12.90800       -0.09300
