42

O          0.57600        0.93100        1.17600
C         -0.13800        1.48100        0.17800
O         -0.85900        0.79700       -0.53000
C          0.03700        2.95200        0.09100
H          0.45500       -0.03200        1.04500
C         -1.11700        3.62200       -0.06900
C         -1.10000        4.95400       -0.19800
C          0.04300        5.68500       -0.09600
C          1.19900        4.99700        0.17000
C          1.22200        3.61300        0.17100
C         -0.14200        7.19100       -0.35900
H         -2.05200        5.45100       -0.37600
H         -2.06900        3.09800       -0.12500
C          2.59100        2.90600        0.19200
C          2.46200        5.73000        0.57400
H          3.03300        5.16200        1.32000
H          3.10700        5.92500       -0.28400
H          2.23200        6.65800        1.10600
C          2.79500        1.55100       -0.49700
H          2.85500        0.74700        0.24600
H          2.02300        1.30800       -1.23100
H          3.75400        1.53900       -1.02800
H          3.29200        3.55600       -0.35000
H          2.95400        2.84100        1.22500
C          0.98200        8.20000       -0.70200
C          0.73300        9.37800        0.24800
N         -0.70800        9.27500        0.51500
N         -0.89800        7.85500        0.72100
C          1.18900       10.73900       -0.20900
H         -1.88200        7.58400        0.69400
H         -1.21200        9.59300       -0.32200
H          2.00200        7.83400       -0.59900
H          1.26700        9.17800        1.18800
H          0.88000        8.51700       -1.74800
H         -0.78200        7.23100       -1.25900
C          0.44000       11.85700       -0.17200
C          1.01800       13.18500       -0.42300
H         -0.59800       11.84900        0.13900
H          2.24100       10.82000       -0.48300
O          0.08000       14.12900       -0.23400
O          2.16700       13.45300       -0.71100
H          0.56200       14.97500       -0.34600
