24

O          1.04800        0.16200       -0.08200
C         -0.09200        0.87100        0.02200
O         -1.17000        0.29300        0.08400
C          0.03200        2.37000        0.00700
H          1.86700        0.69100       -0.11800
C         -1.15900        3.01300       -0.05600
C         -1.25100        4.36100       -0.10900
C         -0.11000        5.09700       -0.14200
C          1.08800        4.46700       -0.03300
C          1.16000        3.11500        0.04500
N         -0.10500        6.46000       -0.35700
C         -2.61600        5.00800       -0.15900
H         -2.08800        2.43600       -0.06500
Cl         2.75200        2.40800        0.18700
O          2.25700        5.23100        0.00200
N         -0.47500        7.19500        0.58200
C         -0.33400        8.50700        0.20600
H         -3.39300        4.30800       -0.48400
H         -2.64800        5.85800       -0.84900
H         -2.88800        5.36100        0.84300
H          2.05400        6.18400        0.06200
O         -1.51100        9.16500        0.21400
O          0.69200        9.08600       -0.12400
H         -1.26500       10.05400       -0.11000
