
 OpenBabel11042013073D

 40 41  0  0  1  0  0  0  0  0999 V2000
    0.7110    1.9740    0.5120 O   0  0  0  0  0  0  0  0  0  0  0  0
   -0.1790    2.3840    1.4450 C   0  0  0  0  0  0  0  0  0  0  0  0
   -0.0440    2.0770    2.6150 O   0  0  0  0  0  0  0  0  0  0  0  0
   -1.0640    3.4290    0.8710 C   0  0  2  0  0  0  0  0  0  0  0  0
    1.4090    1.5150    1.0210 H   0  0  0  0  0  0  0  0  0  0  0  0
   -1.3550    3.4770   -0.4360 C   0  0  0  0  0  0  0  0  0  0  0  0
   -1.4560    4.6740   -1.0620 C   0  0  1  0  0  0  0  0  0  0  0  0
   -0.9360    5.7850   -0.4200 C   0  0  1  0  0  0  0  0  0  0  0  0
   -0.5960    5.6280    0.8960 C   0  0  1  0  0  0  0  0  0  0  0  0
   -1.0480    4.5630    1.5980 C   0  0  1  0  0  0  0  0  0  0  0  0
   -0.6810    7.0840   -1.2100 C   0  0  2  0  0  0  0  0  0  0  0  0
   -1.9680    4.6810   -2.4800 C   0  0  0  0  0  0  0  0  0  0  0  0
   -1.4460    2.5430   -0.9880 H   0  0  0  0  0  0  0  0  0  0  0  0
   -3.3800    4.1330    2.1830 C   0  0  0  0  0  0  0  0  0  0  0  0
    1.6050    5.9270    1.4030 C   0  0  0  0  0  0  0  0  0  0  0  0
   -2.9010    5.2680   -2.5270 H   0  0  0  0  0  0  0  0  0  0  0  0
   -2.2270    3.6680   -2.8110 H   0  0  0  0  0  0  0  0  0  0  0  0
   -1.2300    5.0790   -3.1910 H   0  0  0  0  0  0  0  0  0  0  0  0
    0.4410    8.0400   -0.8230 C   0  0  0  0  0  0  0  0  0  0  0  0
   -0.0110    9.3890   -1.3330 C   0  0  1  0  0  0  0  0  0  0  0  0
   -1.4840    9.3350   -1.2270 N   0  0  0  0  0  0  0  0  0  0  0  0
   -1.8850    7.9300   -1.2900 N   0  0  0  0  0  0  0  0  0  0  0  0
    0.5900   10.5040   -0.4770 C   0  0  0  0  0  0  0  0  0  0  0  0
   -2.5240    7.6850   -0.5270 H   0  0  0  0  0  0  0  0  0  0  0  0
   -1.7490    9.7690   -0.3330 H   0  0  0  0  0  0  0  0  0  0  0  0
    0.6060    8.1410    0.2460 H   0  0  0  0  0  0  0  0  0  0  0  0
    0.2740    9.5570   -2.3770 H   0  0  0  0  0  0  0  0  0  0  0  0
    1.3910    7.7490   -1.2750 H   0  0  0  0  0  0  0  0  0  0  0  0
   -0.4330    6.7980   -2.2390 H   0  0  0  0  0  0  0  0  0  0  0  0
    2.3130    6.5230    1.9840 H   0  0  0  0  0  0  0  0  0  0  0  0
    1.6720    4.8870    1.7500 H   0  0  0  0  0  0  0  0  0  0  0  0
    1.9170    5.9650    0.3500 H   0  0  0  0  0  0  0  0  0  0  0  0
    0.2760    6.4770    1.5670 O   0  0  0  0  0  0  0  0  0  0  0  0
   -4.2360    4.6840    2.5900 H   0  0  0  0  0  0  0  0  0  0  0  0
   -3.6060    3.9730    1.1200 H   0  0  0  0  0  0  0  0  0  0  0  0
   -3.3100    3.1740    2.7030 H   0  0  0  0  0  0  0  0  0  0  0  0
   -2.1750    4.8910    2.4080 O   0  0  0  0  0  0  0  0  0  0  0  0
   -0.3220   11.3150    0.1070 O   0  0  0  0  0  0  0  0  0  0  0  0
    1.7820   10.6840   -0.2690 O   0  0  0  0  0  0  0  0  0  0  0  0
    0.2200   11.9590    0.6090 H   0  0  0  0  0  0  0  0  0  0  0  0
  1  5  1  0  0  0  0
  2  1  1  0  0  0  0
  3  2  2  0  0  0  0
  4  2  1  6  0  0  0
  4 10  5  0  0  0  0
  6  4  5  0  0  0  0
  6  7  5  0  0  0  0
  6 13  1  0  0  0  0
  7 12  1  6  0  0  0
  8  7  5  0  0  0  0
  8 11  1  6  0  0  0
  9  8  5  0  0  0  0
  9 33  1  6  0  0  0
 10  9  5  0  0  0  0
 10 37  1  6  0  0  0
 11 22  1  0  0  0  0
 11 29  1  6  0  0  0
 12 16  1  0  0  0  0
 12 17  1  0  0  0  0
 12 18  1  0  0  0  0
 14 34  1  0  0  0  0
 14 35  1  0  0  0  0
 14 36  1  0  0  0  0
 14 37  1  0  0  0  0
 15 30  1  0  0  0  0
 15 31  1  0  0  0  0
 15 32  1  0  0  0  0
 15 33  1  0  0  0  0
 19 11  1  0  0  0  0
 19 26  1  0  0  0  0
 19 28  1  0  0  0  0
 20 19  1  0  0  0  0
 20 27  1  6  0  0  0
 21 20  1  0  0  0  0
 22 21  1  0  0  0  0
 23 20  1  0  0  0  0
 23 39  2  0  0  0  0
 24 22  1  0  0  0  0
 25 21  1  0  0  0  0
 38 23  1  0  0  0  0
 40 38  1  0  0  0  0
M  END
