
 OpenBabel11042013073D

 45 48  0  0  1  0  0  0  0  0999 V2000
    1.8070   -0.6470   -0.3640 O   0  0  0  0  0  0  0  0  0  0  0  0
    0.5200   -0.2590   -0.4770 C   0  0  0  0  0  0  0  0  0  0  0  0
   -0.3680   -1.0680   -0.7180 O   0  0  0  0  0  0  0  0  0  0  0  0
    0.2550    1.1860   -0.2270 C   0  0  1  0  0  0  0  0  0  0  0  0
    2.4420    0.0700   -0.1700 H   0  0  0  0  0  0  0  0  0  0  0  0
   -1.0320    1.5940   -0.1420 C   0  0  0  0  0  0  0  0  0  0  0  0
   -1.3220    2.8720    0.1690 C   0  0  0  0  0  0  0  0  0  0  0  0
   -0.3450    3.7800    0.4110 C   0  0  2  0  0  0  0  0  0  0  0  0
    0.9400    3.3650    0.2670 C   0  0  0  0  0  0  0  0  0  0  0  0
    1.2290    2.0950   -0.0510 C   0  0  1  0  0  0  0  0  0  0  0  0
   -0.6860    5.1940    0.8760 C   0  0  1  0  0  0  0  0  0  0  0  0
   -2.3700    3.1590    0.2470 H   0  0  0  0  0  0  0  0  0  0  0  0
   -1.8480    0.8880   -0.3010 H   0  0  0  0  0  0  0  0  0  0  0  0
    2.5300    1.7450   -0.1490 F   0  0  0  0  0  0  0  0  0  0  0  0
    1.7790    4.0330    0.4250 H   0  0  0  0  0  0  0  0  0  0  0  0
    0.3650    6.2660    0.6760 C   0  0  0  0  0  0  0  0  0  0  0  0
   -0.4250    7.3860    0.2280 N   0  0  0  0  0  0  0  0  0  0  0  0
   -1.6740    6.9590   -0.1470 N   0  0  0  0  0  0  0  0  0  0  0  0
   -1.8530    5.7520    0.1650 N   0  0  0  0  0  0  0  0  0  0  0  0
    0.2130    8.3510   -0.6560 C   0  0  2  0  0  0  0  0  0  0  0  0
    1.0780    6.0160   -0.1190 H   0  0  0  0  0  0  0  0  0  0  0  0
    0.9040    6.5220    1.5880 H   0  0  0  0  0  0  0  0  0  0  0  0
   -0.9430    5.1400    1.9340 H   0  0  0  0  0  0  0  0  0  0  0  0
    1.0440    9.4520   -0.0090 C   0  0  0  0  0  0  0  0  0  0  0  0
    0.8310   10.5090   -0.9850 N   0  0  0  0  0  0  0  0  0  0  0  0
   -0.3120   10.2460   -1.7240 N   0  0  0  0  0  0  0  0  0  0  0  0
   -0.7530    9.1070   -1.4680 N   0  0  0  0  0  0  0  0  0  0  0  0
    1.0050   11.9180   -0.7760 C   0  0  2  0  0  0  0  0  0  0  0  0
    0.6750    9.7550    0.9740 H   0  0  0  0  0  0  0  0  0  0  0  0
    2.1070    9.1920    0.0430 H   0  0  0  0  0  0  0  0  0  0  0  0
    0.8170    7.7850   -1.3750 H   0  0  0  0  0  0  0  0  0  0  0  0
    2.1630   12.6260   -0.1060 C   0  0  0  0  0  0  0  0  0  0  0  0
    1.5680   14.0450   -0.1850 C   0  0  1  0  0  0  0  0  0  0  0  0
    0.1010   13.8540    0.0410 N   0  0  0  0  0  0  0  0  0  0  0  0
   -0.0980   12.4230    0.0390 N   0  0  0  0  0  0  0  0  0  0  0  0
    2.1090   15.1400    0.7090 C   0  0  0  0  0  0  0  0  0  0  0  0
   -0.9680   12.1380   -0.4200 H   0  0  0  0  0  0  0  0  0  0  0  0
   -0.1640   14.2790    0.9370 H   0  0  0  0  0  0  0  0  0  0  0  0
    3.1030   12.5400   -0.6630 H   0  0  0  0  0  0  0  0  0  0  0  0
    1.6920   14.4200   -1.2100 H   0  0  0  0  0  0  0  0  0  0  0  0
    2.3440   12.3040    0.9280 H   0  0  0  0  0  0  0  0  0  0  0  0
    0.9330   12.3230   -1.7990 H   0  0  0  0  0  0  0  0  0  0  0  0
    1.1890   16.1030    0.9580 O   0  0  0  0  0  0  0  0  0  0  0  0
    3.2680   15.2690    1.0840 O   0  0  0  0  0  0  0  0  0  0  0  0
    1.6820   16.8540    1.3610 H   0  0  0  0  0  0  0  0  0  0  0  0
  1  5  1  0  0  0  0
  2  1  1  0  0  0  0
  3  2  2  0  0  0  0
  4  2  1  1  0  0  0
  4 10  5  0  0  0  0
  6  4  5  0  0  0  0
  6  7  5  0  0  0  0
  6 13  1  0  0  0  0
  7 12  1  0  0  0  0
  8  7  5  1  0  0  0
  8 11  1  0  0  0  0
  9  8  5  0  0  0  0
  9 15  1  0  0  0  0
 10  9  5  0  0  0  0
 10 14  1  1  0  0  0
 11 19  1  0  0  0  0
 11 23  1  1  0  0  0
 16 11  1  0  0  0  0
 16 21  1  0  0  0  0
 16 22  1  0  0  0  0
 17 16  1  0  0  0  0
 18 17  1  0  0  0  0
 19 18  2  0  0  0  0
 20 17  1  0  0  0  0
 20 27  1  0  0  0  0
 20 31  1  6  0  0  0
 24 20  1  0  0  0  0
 24 29  1  0  0  0  0
 24 30  1  0  0  0  0
 25 24  1  0  0  0  0
 26 25  1  0  0  0  0
 27 26  2  0  0  0  0
 28 25  1  0  0  0  0
 28 35  1  0  0  0  0
 28 42  1  6  0  0  0
 32 28  1  0  0  0  0
 32 39  1  0  0  0  0
 32 41  1  0  0  0  0
 33 32  1  0  0  0  0
 33 40  1  6  0  0  0
 34 33  1  0  0  0  0
 35 34  1  0  0  0  0
 36 33  1  0  0  0  0
 36 44  2  0  0  0  0
 37 35  1  0  0  0  0
 38 34  1  0  0  0  0
 43 36  1  0  0  0  0
 45 43  1  0  0  0  0
M  END
