35

O          1.42900        0.19500        0.24800
C          0.21900        0.75000       -0.01400
O         -0.77800        0.04900       -0.04300
C          0.20100        2.23900       -0.17600
H          2.21000        0.78000        0.15500
C         -0.88300        3.03300        0.05600
C         -0.78300        4.41900       -0.02000
C          0.46300        4.96400       -0.22400
C          1.45100        4.12600       -0.64300
C          1.33300        2.80300       -0.60100
C          0.99600        6.36500       -0.00500
C         -1.99700        5.37000        0.09700
C         -2.11200        2.38300        0.42200
F          2.43300        2.08100       -0.90300
H          2.42600        4.49400       -0.96000
C         -3.44500        4.88400       -0.04500
H         -3.57600        4.23000       -0.91500
H         -3.79100        4.37800        0.86000
H         -4.11800        5.73600       -0.19100
H         -1.90900        6.05800       -0.75200
H         -1.92100        5.96100        1.01700
N         -3.10900        1.87100        0.72400
C          0.42300        7.55500       -0.31100
C          1.12200        8.71900       -0.21600
C          2.42000        8.71100        0.15900
C          2.97000        7.56500        0.57400
C          2.25300        6.43300        0.52600
C          3.34000        9.87700        0.12100
H          0.64700        9.65300       -0.50100
H         -0.59300        7.62600       -0.68000
H          2.77500        5.54400        0.87800
H          4.00700        7.51300        0.90400
O          2.72300       11.05200       -0.06700
O          4.55700        9.82800        0.20500
H          3.47500       11.68000       -0.10000
