
 OpenBabel11042013073D

 35 36  0  0  1  0  0  0  0  0999 V2000
    1.4290    0.1950    0.2480 O   0  0  0  0  0  0  0  0  0  0  0  0
    0.2190    0.7500   -0.0140 C   0  0  0  0  0  0  0  0  0  0  0  0
   -0.7780    0.0490   -0.0430 O   0  0  0  0  0  0  0  0  0  0  0  0
    0.2010    2.2390   -0.1760 C   0  0  2  0  0  0  0  0  0  0  0  0
    2.2100    0.7800    0.1550 H   0  0  0  0  0  0  0  0  0  0  0  0
   -0.8830    3.0330    0.0560 C   0  0  2  0  0  0  0  0  0  0  0  0
   -0.7830    4.4190   -0.0200 C   0  0  1  0  0  0  0  0  0  0  0  0
    0.4630    4.9640   -0.2240 C   0  0  2  0  0  0  0  0  0  0  0  0
    1.4510    4.1260   -0.6430 C   0  0  0  0  0  0  0  0  0  0  0  0
    1.3330    2.8030   -0.6010 C   0  0  1  0  0  0  0  0  0  0  0  0
    0.9960    6.3650   -0.0050 C   0  0  2  0  0  0  0  0  0  0  0  0
   -1.9970    5.3700    0.0970 C   0  0  0  0  0  0  0  0  0  0  0  0
   -2.1120    2.3830    0.4220 C   0  0  0  0  0  0  0  0  0  0  0  0
    2.4330    2.0810   -0.9030 F   0  0  0  0  0  0  0  0  0  0  0  0
    2.4260    4.4940   -0.9600 H   0  0  0  0  0  0  0  0  0  0  0  0
   -3.4450    4.8840   -0.0450 C   0  0  0  0  0  0  0  0  0  0  0  0
   -3.5760    4.2300   -0.9150 H   0  0  0  0  0  0  0  0  0  0  0  0
   -3.7910    4.3780    0.8600 H   0  0  0  0  0  0  0  0  0  0  0  0
   -4.1180    5.7360   -0.1910 H   0  0  0  0  0  0  0  0  0  0  0  0
   -1.9090    6.0580   -0.7520 H   0  0  0  0  0  0  0  0  0  0  0  0
   -1.9210    5.9610    1.0170 H   0  0  0  0  0  0  0  0  0  0  0  0
   -3.1090    1.8710    0.7240 N   0  0  0  0  0  0  0  0  0  0  0  0
    0.4230    7.5550   -0.3110 C   0  0  0  0  0  0  0  0  0  0  0  0
    1.1220    8.7190   -0.2160 C   0  0  0  0  0  0  0  0  0  0  0  0
    2.4200    8.7110    0.1590 C   0  0  1  0  0  0  0  0  0  0  0  0
    2.9700    7.5650    0.5740 C   0  0  0  0  0  0  0  0  0  0  0  0
    2.2530    6.4330    0.5260 C   0  0  0  0  0  0  0  0  0  0  0  0
    3.3400    9.8770    0.1210 C   0  0  0  0  0  0  0  0  0  0  0  0
    0.6470    9.6530   -0.5010 H   0  0  0  0  0  0  0  0  0  0  0  0
   -0.5930    7.6260   -0.6800 H   0  0  0  0  0  0  0  0  0  0  0  0
    2.7750    5.5440    0.8780 H   0  0  0  0  0  0  0  0  0  0  0  0
    4.0070    7.5130    0.9040 H   0  0  0  0  0  0  0  0  0  0  0  0
    2.7230   11.0520   -0.0670 O   0  0  0  0  0  0  0  0  0  0  0  0
    4.5570    9.8280    0.2050 O   0  0  0  0  0  0  0  0  0  0  0  0
    3.4750   11.6800   -0.1000 H   0  0  0  0  0  0  0  0  0  0  0  0
  1  5  1  0  0  0  0
  2  1  1  0  0  0  0
  3  2  2  0  0  0  0
  4  2  1  6  0  0  0
  4 10  5  0  0  0  0
  6  4  5  0  0  0  0
  6  7  5  0  0  0  0
  6 13  1  1  0  0  0
  7 12  1  6  0  0  0
  8  7  5  0  0  0  0
  8  9  5  1  0  0  0
  8 11  1  0  0  0  0
  9 15  1  0  0  0  0
 10  9  5  0  0  0  0
 10 14  1  1  0  0  0
 11 23  5  6  0  0  0
 11 27  5  0  0  0  0
 12 20  1  0  0  0  0
 12 21  1  0  0  0  0
 13 22  3  0  0  0  0
 16 17  1  0  0  0  0
 16 18  1  0  0  0  0
 16 19  1  0  0  0  0
 16 12  1  0  0  0  0
 23 24  5  0  0  0  0
 23 30  1  0  0  0  0
 24 29  1  0  0  0  0
 25 24  5  0  0  0  0
 25 28  1  6  0  0  0
 26 25  5  0  0  0  0
 26 32  1  0  0  0  0
 27 26  5  0  0  0  0
 27 31  1  0  0  0  0
 28 34  2  0  0  0  0
 33 28  1  0  0  0  0
 35 33  1  0  0  0  0
M  END
