
 OpenBabel11042013073D

 22 22  0  0  1  0  0  0  0  0999 V2000
    0.9790    0.2850    0.1500 O   0  0  0  0  0  0  0  0  0  0  0  0
   -0.0520    1.1290   -0.0200 C   0  0  0  0  0  0  0  0  0  0  0  0
   -1.1850    0.6580   -0.0990 O   0  0  0  0  0  0  0  0  0  0  0  0
    0.1720    2.6230   -0.0560 C   0  0  2  0  0  0  0  0  0  0  0  0
    1.9210    0.5400    0.1800 H   0  0  0  0  0  0  0  0  0  0  0  0
   -0.9530    3.3850    0.0690 C   0  0  2  0  0  0  0  0  0  0  0  0
   -0.8650    4.7250    0.0530 C   0  0  0  0  0  0  0  0  0  0  0  0
    0.3070    5.3810   -0.0840 C   0  0  2  0  0  0  0  0  0  0  0  0
    1.4250    4.6200   -0.2140 C   0  0  2  0  0  0  0  0  0  0  0  0
    1.3620    3.2650   -0.2100 C   0  0  1  0  0  0  0  0  0  0  0  0
    0.4020    6.7620   -0.0820 N   0  0  0  0  0  0  0  0  0  0  0  0
   -1.7920    5.2870    0.1570 H   0  0  0  0  0  0  0  0  0  0  0  0
   -2.2360    2.8760    0.2190 O   0  0  0  0  0  0  0  0  0  0  0  0
    2.5650    2.5250   -0.3640 C   0  0  0  0  0  0  0  0  0  0  0  0
    2.9760    5.4360   -0.3840 Cl  0  0  0  0  0  0  0  0  0  0  0  0
   -2.2790    1.8980    0.1330 H   0  0  0  0  0  0  0  0  0  0  0  0
    3.4510    1.7800   -0.4270 N   0  0  0  0  0  0  0  0  0  0  0  0
   -0.6560    7.4250   -0.1220 N   0  0  0  0  0  0  0  0  0  0  0  0
   -0.4250    8.7740   -0.0570 C   0  0  0  0  0  0  0  0  0  0  0  0
   -1.5870    9.4610   -0.0610 O   0  0  0  0  0  0  0  0  0  0  0  0
    0.6330    9.3840    0.0090 O   0  0  0  0  0  0  0  0  0  0  0  0
   -1.2840   10.3880    0.0020 H   0  0  0  0  0  0  0  0  0  0  0  0
  1  5  1  0  0  0  0
  2  1  1  0  0  0  0
  3  2  2  0  0  0  0
  4  2  1  6  0  0  0
  4 10  5  0  0  0  0
  6  4  5  0  0  0  0
  6  7  5  0  0  0  0
  6 13  1  1  0  0  0
  7 12  1  0  0  0  0
  8  7  5  0  0  0  0
  8 11  1  1  0  0  0
  9  8  5  0  0  0  0
  9 15  1  1  0  0  0
 10  9  5  0  0  0  0
 10 14  1  1  0  0  0
 13 16  1  0  0  0  0
 14 17  3  0  0  0  0
 18 11  2  0  0  0  0
 19 18  1  0  0  0  0
 19 21  2  0  0  0  0
 20 19  1  0  0  0  0
 22 20  1  0  0  0  0
M  END
