32

O          0.92200       -0.07200       -0.01500
C         -0.16300        0.72500       -0.00600
O         -1.28300        0.23100       -0.02300
C          0.08300        2.20900        0.03300
H          1.77600        0.39600        0.00300
C         -1.06100        2.93900        0.04200
C         -1.04100        4.28600        0.06500
C          0.13000        4.95600        0.07700
C          1.26900        4.22400        0.07200
C          1.26900        2.87400        0.05000
C          0.25100        6.41100        0.01700
H         -1.99500        4.80800        0.05300
H         -2.03700        2.45100        0.01700
Br         2.97700        2.06200        0.00300
H          2.23000        4.74400        0.07700
C         -0.73000        7.33000        0.01500
C         -0.52300        8.78900       -0.30700
H         -1.76700        7.03900        0.16200
H          1.27000        6.76300       -0.13500
C          0.81700        9.43700       -0.00400
N          0.37600       10.71300        0.48700
N         -0.96000       10.73600        0.75600
N         -1.45700        9.61900        0.47200
C          0.95000       11.97100        0.07200
H          1.47500        9.48200       -0.87900
H          1.34800        8.92500        0.80600
H         -0.77800        8.92700       -1.36600
C          1.14400       13.14000       -0.12700
C          0.98900       14.55700       -0.18000
O         -0.31000       14.91500       -0.19600
O          1.90000       15.36300       -0.14600
H         -0.30900       15.88600       -0.11600
