
 OpenBabel11042013073D

 48 50  0  0  1  0  0  0  0  0999 V2000
    1.4070   -1.0690   -0.0340 O   0  0  0  0  0  0  0  0  0  0  0  0
    0.2500   -0.3970    0.1330 C   0  0  0  0  0  0  0  0  0  0  0  0
   -0.7710   -0.9710    0.4880 O   0  0  0  0  0  0  0  0  0  0  0  0
    0.3180    1.0770   -0.1120 C   0  0  1  0  0  0  0  0  0  0  0  0
    2.1370   -0.5680   -0.4290 H   0  0  0  0  0  0  0  0  0  0  0  0
   -0.8620    1.7340   -0.1360 C   0  0  0  0  0  0  0  0  0  0  0  0
   -0.9420    3.0830   -0.2310 C   0  0  2  0  0  0  0  0  0  0  0  0
    0.2330    3.7950   -0.3180 C   0  0  2  0  0  0  0  0  0  0  0  0
    1.4050    3.1120   -0.3770 C   0  0  0  0  0  0  0  0  0  0  0  0
    1.4580    1.7780   -0.2530 C   0  0  0  0  0  0  0  0  0  0  0  0
    0.3020    5.2760   -0.2280 C   0  0  1  0  0  0  0  0  0  0  0  0
   -2.3290    3.7440   -0.1730 C   0  0  0  0  0  0  0  0  0  0  0  0
   -1.7780    1.1560   -0.0380 H   0  0  0  0  0  0  0  0  0  0  0  0
    2.4430    1.3290   -0.2280 H   0  0  0  0  0  0  0  0  0  0  0  0
    2.3530    3.6380   -0.4750 H   0  0  0  0  0  0  0  0  0  0  0  0
   -0.6630    6.0660   -0.7410 C   0  0  0  0  0  0  0  0  0  0  0  0
   -0.7100    7.3740   -0.4870 C   0  0  0  0  0  0  0  0  0  0  0  0
    0.2700    7.9830    0.2130 C   0  0  1  0  0  0  0  0  0  0  0  0
    1.2960    7.2270    0.6600 C   0  0  0  0  0  0  0  0  0  0  0  0
    1.3010    5.8970    0.4540 C   0  0  0  0  0  0  0  0  0  0  0  0
    0.2210    9.4330    0.3020 C   0  0  2  0  0  0  0  0  0  0  0  0
   -1.5570    7.9270   -0.8840 H   0  0  0  0  0  0  0  0  0  0  0  0
   -1.4670    5.6860   -1.3530 H   0  0  0  0  0  0  0  0  0  0  0  0
    2.1400    5.3420    0.8650 H   0  0  0  0  0  0  0  0  0  0  0  0
    2.1330    7.6740    1.1920 H   0  0  0  0  0  0  0  0  0  0  0  0
   -3.5540    2.9950    0.3330 C   0  0  0  0  0  0  0  0  0  0  0  0
   -3.3860    2.5770    1.3270 H   0  0  0  0  0  0  0  0  0  0  0  0
   -3.8550    2.2040   -0.3600 H   0  0  0  0  0  0  0  0  0  0  0  0
   -4.3940    3.7000    0.4010 H   0  0  0  0  0  0  0  0  0  0  0  0
   -2.2750    4.6250    0.4770 H   0  0  0  0  0  0  0  0  0  0  0  0
   -2.5890    4.0610   -1.1910 H   0  0  0  0  0  0  0  0  0  0  0  0
   -0.9540   10.0820    0.4390 C   0  0  0  0  0  0  0  0  0  0  0  0
   -1.0300   11.4100    0.2670 C   0  0  0  0  0  0  0  0  0  0  0  0
    0.0750   12.1350   -0.0020 C   0  0  2  0  0  0  0  0  0  0  0  0
    1.2660   11.4940   -0.0700 C   0  0  0  0  0  0  0  0  0  0  0  0
    1.3410   10.1600    0.0740 C   0  0  0  0  0  0  0  0  0  0  0  0
    0.0370   13.5690   -0.2050 C   0  0  0  0  0  0  0  0  0  0  0  0
   -2.0220   11.8480    0.3210 H   0  0  0  0  0  0  0  0  0  0  0  0
   -1.8690    9.5410    0.6330 H   0  0  0  0  0  0  0  0  0  0  0  0
    2.3030    9.6790   -0.0370 H   0  0  0  0  0  0  0  0  0  0  0  0
    2.1860   12.0360   -0.2740 H   0  0  0  0  0  0  0  0  0  0  0  0
   -1.0560   14.3300   -0.0650 C   0  0  0  0  0  0  0  0  0  0  0  0
   -0.9370   15.7840   -0.1240 C   0  0  0  0  0  0  0  0  0  0  0  0
   -2.0390   13.9400    0.1620 H   0  0  0  0  0  0  0  0  0  0  0  0
    0.9880   14.0440   -0.4520 H   0  0  0  0  0  0  0  0  0  0  0  0
   -2.1600   16.3280   -0.0470 O   0  0  0  0  0  0  0  0  0  0  0  0
    0.0770   16.4440   -0.1800 O   0  0  0  0  0  0  0  0  0  0  0  0
   -1.9860   17.2910   -0.0370 H   0  0  0  0  0  0  0  0  0  0  0  0
  1  5  1  0  0  0  0
  2  1  1  0  0  0  0
  3  2  2  0  0  0  0
  4  2  1  1  0  0  0
  4 10  5  0  0  0  0
  6  4  5  0  0  0  0
  6  7  5  0  0  0  0
  6 13  1  0  0  0  0
  7 12  1  1  0  0  0
  8  7  5  0  0  0  0
  8  9  5  1  0  0  0
  8 11  1  0  0  0  0
  9 15  1  0  0  0  0
 10  9  5  0  0  0  0
 10 14  1  0  0  0  0
 11 16  5  1  0  0  0
 11 20  5  0  0  0  0
 12 30  1  0  0  0  0
 12 31  1  0  0  0  0
 16 17  5  0  0  0  0
 16 23  1  0  0  0  0
 17 22  1  0  0  0  0
 18 17  5  6  0  0  0
 18 21  1  0  0  0  0
 19 18  5  0  0  0  0
 19 25  1  0  0  0  0
 20 19  5  0  0  0  0
 20 24  1  0  0  0  0
 21 32  5  6  0  0  0
 21 36  5  0  0  0  0
 26 27  1  0  0  0  0
 26 28  1  0  0  0  0
 26 29  1  0  0  0  0
 26 12  1  0  0  0  0
 32 33  5  0  0  0  0
 32 39  1  0  0  0  0
 33 38  1  0  0  0  0
 34 33  5  0  0  0  0
 34 37  1  1  0  0  0
 35 34  5  0  0  0  0
 35 41  1  0  0  0  0
 36 35  5  0  0  0  0
 36 40  1  0  0  0  0
 37 45  1  0  0  0  0
 42 37  2  0  0  0  0
 42 44  1  0  0  0  0
 43 42  1  0  0  0  0
 43 47  2  0  0  0  0
 46 43  1  0  0  0  0
 48 46  1  0  0  0  0
M  END
