40

O          1.36900       -0.11600        0.20200
C          0.20900        0.47300       -0.16400
O         -0.68900       -0.21200       -0.63100
C          0.12000        1.97200        0.00300
H          2.05300        0.41700        0.62900
C         -1.06200        2.61400       -0.23200
C         -1.16200        3.96100       -0.08000
C         -0.04800        4.71900        0.17300
C          1.11200        4.07000        0.40400
C          1.19000        2.72600        0.34700
C         -0.13000        6.24200        0.09400
C         -2.44800        4.59000       -0.16400
N         -2.22300        1.89500       -0.66900
H          2.16700        2.30300        0.54700
H          2.02300        4.61700        0.63600
C          1.08200        7.14400        0.22100
N          0.42500        8.37100        0.65700
N         -0.77400        8.04700        1.26300
N         -1.00500        6.81700        1.13400
C          0.44100        9.53500       -0.21300
H          1.76500        6.84900        1.02300
H          1.63700        7.27900       -0.71300
H         -0.57300        6.46800       -0.88900
H         -2.87200        2.38700       -1.27900
H         -2.04700        0.94700       -1.01800
N         -3.49500        5.08800       -0.20400
C          1.60300       10.48300        0.00600
C          1.09300       11.78300       -0.61500
N         -0.38400       11.62100       -0.71500
N         -0.68000       10.43100        0.04800
C          1.45400       13.01800        0.20200
H         -1.55000        9.96900       -0.22800
H         -0.82300       12.45500       -0.29700
H          2.51700       10.12600       -0.48200
H          1.48900       11.92100       -1.62700
H          1.82100       10.60300        1.07600
H          0.39800        9.18900       -1.25600
O          0.43700       13.90900        0.31300
O          2.54900       13.27900        0.66500
H          0.81800       14.65500        0.82100
