
 OpenBabel11042013073D

 40 42  0  0  1  0  0  0  0  0999 V2000
    1.3690   -0.1160    0.2020 O   0  0  0  0  0  0  0  0  0  0  0  0
    0.2090    0.4730   -0.1640 C   0  0  0  0  0  0  0  0  0  0  0  0
   -0.6890   -0.2120   -0.6310 O   0  0  0  0  0  0  0  0  0  0  0  0
    0.1200    1.9720    0.0030 C   0  0  2  0  0  0  0  0  0  0  0  0
    2.0530    0.4170    0.6290 H   0  0  0  0  0  0  0  0  0  0  0  0
   -1.0620    2.6140   -0.2320 C   0  0  1  0  0  0  0  0  0  0  0  0
   -1.1620    3.9610   -0.0800 C   0  0  2  0  0  0  0  0  0  0  0  0
   -0.0480    4.7190    0.1730 C   0  0  1  0  0  0  0  0  0  0  0  0
    1.1120    4.0700    0.4040 C   0  0  0  0  0  0  0  0  0  0  0  0
    1.1900    2.7260    0.3470 C   0  0  0  0  0  0  0  0  0  0  0  0
   -0.1300    6.2420    0.0940 C   0  0  2  0  0  0  0  0  0  0  0  0
   -2.4480    4.5900   -0.1640 C   0  0  0  0  0  0  0  0  0  0  0  0
   -2.2230    1.8950   -0.6690 N   0  0  0  0  0  0  0  0  0  0  0  0
    2.1670    2.3030    0.5470 H   0  0  0  0  0  0  0  0  0  0  0  0
    2.0230    4.6170    0.6360 H   0  0  0  0  0  0  0  0  0  0  0  0
    1.0820    7.1440    0.2210 C   0  0  0  0  0  0  0  0  0  0  0  0
    0.4250    8.3710    0.6570 N   0  0  0  0  0  0  0  0  0  0  0  0
   -0.7740    8.0470    1.2630 N   0  0  0  0  0  0  0  0  0  0  0  0
   -1.0050    6.8170    1.1340 N   0  0  0  0  0  0  0  0  0  0  0  0
    0.4410    9.5350   -0.2130 C   0  0  2  0  0  0  0  0  0  0  0  0
    1.7650    6.8490    1.0230 H   0  0  0  0  0  0  0  0  0  0  0  0
    1.6370    7.2790   -0.7130 H   0  0  0  0  0  0  0  0  0  0  0  0
   -0.5730    6.4680   -0.8890 H   0  0  0  0  0  0  0  0  0  0  0  0
   -2.8720    2.3870   -1.2790 H   0  0  0  0  0  0  0  0  0  0  0  0
   -2.0470    0.9470   -1.0180 H   0  0  0  0  0  0  0  0  0  0  0  0
   -3.4950    5.0880   -0.2040 N   0  0  0  0  0  0  0  0  0  0  0  0
    1.6030   10.4830    0.0060 C   0  0  0  0  0  0  0  0  0  0  0  0
    1.0930   11.7830   -0.6150 C   0  0  1  0  0  0  0  0  0  0  0  0
   -0.3840   11.6210   -0.7150 N   0  0  0  0  0  0  0  0  0  0  0  0
   -0.6800   10.4310    0.0480 N   0  0  0  0  0  0  0  0  0  0  0  0
    1.4540   13.0180    0.2020 C   0  0  0  0  0  0  0  0  0  0  0  0
   -1.5500    9.9690   -0.2280 H   0  0  0  0  0  0  0  0  0  0  0  0
   -0.8230   12.4550   -0.2970 H   0  0  0  0  0  0  0  0  0  0  0  0
    2.5170   10.1260   -0.4820 H   0  0  0  0  0  0  0  0  0  0  0  0
    1.4890   11.9210   -1.6270 H   0  0  0  0  0  0  0  0  0  0  0  0
    1.8210   10.6030    1.0760 H   0  0  0  0  0  0  0  0  0  0  0  0
    0.3980    9.1890   -1.2560 H   0  0  0  0  0  0  0  0  0  0  0  0
    0.4370   13.9090    0.3130 O   0  0  0  0  0  0  0  0  0  0  0  0
    2.5490   13.2790    0.6650 O   0  0  0  0  0  0  0  0  0  0  0  0
    0.8180   14.6550    0.8210 H   0  0  0  0  0  0  0  0  0  0  0  0
  1  5  1  0  0  0  0
  2  1  1  0  0  0  0
  3  2  2  0  0  0  0
  4  2  1  6  0  0  0
  4 10  5  0  0  0  0
  6  4  5  0  0  0  0
  6  7  5  0  0  0  0
  6 13  1  6  0  0  0
  7 12  1  1  0  0  0
  8  7  5  0  0  0  0
  8  9  5  6  0  0  0
  8 11  1  0  0  0  0
  9 15  1  0  0  0  0
 10  9  5  0  0  0  0
 10 14  1  0  0  0  0
 11 19  1  0  0  0  0
 11 23  1  6  0  0  0
 12 26  3  0  0  0  0
 13 24  1  0  0  0  0
 13 25  1  0  0  0  0
 16 11  1  0  0  0  0
 16 21  1  0  0  0  0
 16 22  1  0  0  0  0
 17 16  1  0  0  0  0
 18 17  1  0  0  0  0
 19 18  2  0  0  0  0
 20 17  1  0  0  0  0
 20 30  1  0  0  0  0
 20 37  1  6  0  0  0
 27 20  1  0  0  0  0
 27 34  1  0  0  0  0
 27 36  1  0  0  0  0
 28 27  1  0  0  0  0
 28 35  1  6  0  0  0
 29 28  1  0  0  0  0
 30 29  1  0  0  0  0
 31 28  1  0  0  0  0
 31 39  2  0  0  0  0
 32 30  1  0  0  0  0
 33 29  1  0  0  0  0
 38 31  1  0  0  0  0
 40 38  1  0  0  0  0
M  END
