33

O          1.48700        0.41400       -0.10700
C          0.31700        1.07600       -0.23500
O         -0.68500        0.49800       -0.63600
C          0.35000        2.53300        0.12600
H          2.18200        0.87500        0.38900
C         -0.81600        3.19100        0.35000
C         -0.79500        4.50700        0.61400
C          0.36200        5.19300        0.64100
C          1.54000        4.56400        0.41900
C          1.51300        3.23500        0.15500
C          0.25000        6.60200        0.74800
H         -1.73500        5.03800        0.77600
N         -2.11100        2.58100        0.26700
H          2.45900        2.75800       -0.08100
C          2.86000        5.30800        0.37100
H         -2.71700        3.07700       -0.38400
H         -2.07000        1.60200       -0.04000
H          2.76300        6.29500       -0.09500
H          3.60600        4.76800       -0.22200
H          3.26200        5.43800        1.38100
C          0.01500        7.74100        0.48900
C         -0.33900        8.97000       -0.21000
C          0.76900        9.97000       -0.27100
N          0.00800       11.17000       -0.08500
N         -1.22600       10.93000        0.44300
N         -1.41400        9.68300        0.50300
C          0.53400       12.42200       -0.20800
H          1.49800        9.89100        0.54100
H          1.29500        9.97400       -1.23000
H         -0.69900        8.72400       -1.21400
O         -0.34300       13.41500        0.03500
O          1.68500       12.68900       -0.52100
H          0.18800       14.22500       -0.09800
