
 OpenBabel11042013073D

 33 34  0  0  1  0  0  0  0  0999 V2000
    1.3470    0.1050   -0.1270 O   0  0  0  0  0  0  0  0  0  0  0  0
    0.1160    0.6400   -0.0340 C   0  0  0  0  0  0  0  0  0  0  0  0
   -0.8700   -0.0700    0.0550 O   0  0  0  0  0  0  0  0  0  0  0  0
    0.1290    2.1280   -0.0210 C   0  0  1  0  0  0  0  0  0  0  0  0
    1.1940   -0.8630   -0.0940 H   0  0  0  0  0  0  0  0  0  0  0  0
   -1.0410    2.7880    0.0780 C   0  0  0  0  0  0  0  0  0  0  0  0
   -1.0680    4.1380    0.1490 C   0  0  2  0  0  0  0  0  0  0  0  0
    0.0850    4.8640    0.1070 C   0  0  2  0  0  0  0  0  0  0  0  0
    1.2630    4.1790   -0.0160 C   0  0  2  0  0  0  0  0  0  0  0  0
    1.2760    2.8290   -0.0780 C   0  0  0  0  0  0  0  0  0  0  0  0
    0.1480    6.3260    0.2690 C   0  0  0  0  0  0  0  0  0  0  0  0
   -2.6430    4.8590    0.3450 Cl  0  0  0  0  0  0  0  0  0  0  0  0
   -1.9730    2.2250    0.1240 H   0  0  0  0  0  0  0  0  0  0  0  0
    2.2290    2.3070   -0.1590 H   0  0  0  0  0  0  0  0  0  0  0  0
    2.5320    4.8460   -0.0780 C   0  0  0  0  0  0  0  0  0  0  0  0
   -0.5790    7.2640   -0.3610 C   0  0  0  0  0  0  0  0  0  0  0  0
   -0.3810    8.7000   -0.1880 C   0  0  2  0  0  0  0  0  0  0  0  0
   -1.3660    6.9850   -1.0580 H   0  0  0  0  0  0  0  0  0  0  0  0
    0.9150    6.6690    0.9670 H   0  0  0  0  0  0  0  0  0  0  0  0
   -1.4530    9.5200   -0.1050 C   0  0  0  0  0  0  0  0  0  0  0  0
   -1.2980   10.8560   -0.0010 C   0  0  0  0  0  0  0  0  0  0  0  0
   -0.0610   11.3960    0.0090 C   0  0  1  0  0  0  0  0  0  0  0  0
    1.0160   10.5890   -0.0730 C   0  0  0  0  0  0  0  0  0  0  0  0
    0.8550    9.2540   -0.1760 C   0  0  0  0  0  0  0  0  0  0  0  0
    0.1650   12.8650    0.0890 C   0  0  0  0  0  0  0  0  0  0  0  0
   -2.1820   11.4860    0.0640 H   0  0  0  0  0  0  0  0  0  0  0  0
   -2.4610    9.1130   -0.1180 H   0  0  0  0  0  0  0  0  0  0  0  0
    1.7450    8.6340   -0.2630 H   0  0  0  0  0  0  0  0  0  0  0  0
    2.0230   11.0030   -0.0710 H   0  0  0  0  0  0  0  0  0  0  0  0
    3.5600    5.3770   -0.1210 N   0  0  0  0  0  0  0  0  0  0  0  0
   -0.9740   13.5820    0.0670 O   0  0  0  0  0  0  0  0  0  0  0  0
    1.2460   13.4260    0.1490 O   0  0  0  0  0  0  0  0  0  0  0  0
   -0.6620   14.5090    0.1010 H   0  0  0  0  0  0  0  0  0  0  0  0
  1  5  1  0  0  0  0
  2  1  1  0  0  0  0
  3  2  2  0  0  0  0
  4  2  1  1  0  0  0
  4 10  5  0  0  0  0
  6  4  5  0  0  0  0
  6  7  5  0  0  0  0
  6 13  1  0  0  0  0
  7 12  1  1  0  0  0
  8  7  5  0  0  0  0
  8 11  1  1  0  0  0
  9  8  5  0  0  0  0
  9 15  1  1  0  0  0
 10  9  5  0  0  0  0
 10 14  1  0  0  0  0
 11 19  1  0  0  0  0
 15 30  3  0  0  0  0
 16 11  2  0  0  0  0
 16 18  1  0  0  0  0
 17 16  1  6  0  0  0
 17 24  5  0  0  0  0
 20 17  5  0  0  0  0
 20 21  5  0  0  0  0
 20 27  1  0  0  0  0
 21 26  1  0  0  0  0
 22 21  5  0  0  0  0
 22 25  1  6  0  0  0
 23 22  5  0  0  0  0
 23 29  1  0  0  0  0
 24 23  5  0  0  0  0
 24 28  1  0  0  0  0
 25 32  2  0  0  0  0
 31 25  1  0  0  0  0
 33 31  1  0  0  0  0
M  END
