
 OpenBabel11042013073D

 47 49  0  0  1  0  0  0  0  0999 V2000
    1.0510   -0.6580    0.4000 O   0  0  0  0  0  0  0  0  0  0  0  0
    0.0440    0.0110   -0.1850 C   0  0  0  0  0  0  0  0  0  0  0  0
   -0.9360   -0.5900   -0.6070 O   0  0  0  0  0  0  0  0  0  0  0  0
    0.1580    1.5140   -0.1390 C   0  0  1  0  0  0  0  0  0  0  0  0
    1.6220   -0.0760    0.9240 H   0  0  0  0  0  0  0  0  0  0  0  0
   -1.0890    2.0410   -0.0770 C   0  0  0  0  0  0  0  0  0  0  0  0
   -1.2950    3.3630    0.0190 C   0  0  0  0  0  0  0  0  0  0  0  0
   -0.2570    4.2210    0.0680 C   0  0  2  0  0  0  0  0  0  0  0  0
    0.9790    3.6970   -0.0360 C   0  0  0  0  0  0  0  0  0  0  0  0
    1.2370    2.3580   -0.1390 C   0  0  1  0  0  0  0  0  0  0  0  0
   -0.4650    5.6910    0.3690 C   0  0  1  0  0  0  0  0  0  0  0  0
   -2.3250    3.7020    0.0990 H   0  0  0  0  0  0  0  0  0  0  0  0
   -1.9800    1.4140   -0.0790 H   0  0  0  0  0  0  0  0  0  0  0  0
    2.7460    2.1150   -0.2330 C   0  0  0  0  0  0  0  0  0  0  0  0
    1.8110    4.4030   -0.0040 H   0  0  0  0  0  0  0  0  0  0  0  0
    0.3240    6.6760   -0.3610 O   0  0  0  0  0  0  0  0  0  0  0  0
   -1.7090    7.7020    0.2420 C   0  0  0  0  0  0  0  0  0  0  0  0
   -1.8870    6.2090    0.2350 C   0  0  0  0  0  0  0  0  0  0  0  0
    0.2870    9.2660   -0.2930 C   0  0  1  0  0  0  0  0  0  0  0  0
   -2.5460    5.8670    1.0390 H   0  0  0  0  0  0  0  0  0  0  0  0
   -2.1400    8.1750    1.1300 H   0  0  0  0  0  0  0  0  0  0  0  0
   -2.2260    8.0900   -0.6400 H   0  0  0  0  0  0  0  0  0  0  0  0
   -2.3280    5.9130   -0.7260 H   0  0  0  0  0  0  0  0  0  0  0  0
    0.1610    7.8990    1.2450 H   0  0  0  0  0  0  0  0  0  0  0  0
   -0.1890    7.9060    0.2000 C   0  0  2  0  0  0  0  0  0  0  0  0
   -0.1640    5.7870    1.4250 H   0  0  0  0  0  0  0  0  0  0  0  0
   -0.6190   10.2210   -0.6110 C   0  0  0  0  0  0  0  0  0  0  0  0
   -0.2700   11.5080   -0.7010 C   0  0  0  0  0  0  0  0  0  0  0  0
    0.9950   11.9030   -0.4860 C   0  0  2  0  0  0  0  0  0  0  0  0
    1.9400   10.9560   -0.2880 C   0  0  0  0  0  0  0  0  0  0  0  0
    1.5850    9.6480   -0.1960 C   0  0  0  0  0  0  0  0  0  0  0  0
    1.2570   13.2580   -0.4020 N   0  0  0  0  0  0  0  0  0  0  0  0
   -1.0480   12.2510   -0.8710 H   0  0  0  0  0  0  0  0  0  0  0  0
   -1.6780   10.0170   -0.7120 H   0  0  0  0  0  0  0  0  0  0  0  0
    2.3540    8.9130    0.0350 H   0  0  0  0  0  0  0  0  0  0  0  0
    2.9680   11.2490   -0.1350 H   0  0  0  0  0  0  0  0  0  0  0  0
    3.4070    0.7670   -0.4530 C   0  0  0  0  0  0  0  0  0  0  0  0
    2.9020    0.1750   -1.2160 H   0  0  0  0  0  0  0  0  0  0  0  0
    3.4880    0.2050    0.4820 H   0  0  0  0  0  0  0  0  0  0  0  0
    4.4400    0.9280   -0.7840 H   0  0  0  0  0  0  0  0  0  0  0  0
    3.1030    2.7410   -1.0650 H   0  0  0  0  0  0  0  0  0  0  0  0
    3.2020    2.5370    0.6760 H   0  0  0  0  0  0  0  0  0  0  0  0
    0.6020   13.7980    0.5290 N   0  0  0  0  0  0  0  0  0  0  0  0
    0.3500   15.1140    0.2960 C   0  0  0  0  0  0  0  0  0  0  0  0
   -0.9800   15.3590    0.2710 O   0  0  0  0  0  0  0  0  0  0  0  0
    1.1360   16.0310    0.1460 O   0  0  0  0  0  0  0  0  0  0  0  0
   -1.0110   16.3200    0.0980 H   0  0  0  0  0  0  0  0  0  0  0  0
  1  5  1  0  0  0  0
  2  1  1  0  0  0  0
  3  2  2  0  0  0  0
  4  2  1  1  0  0  0
  4 10  5  0  0  0  0
  6  4  5  0  0  0  0
  6  7  5  0  0  0  0
  6 13  1  0  0  0  0
  7 12  1  0  0  0  0
  8  7  5  1  0  0  0
  8 11  1  0  0  0  0
  9  8  5  0  0  0  0
  9 15  1  0  0  0  0
 10  9  5  0  0  0  0
 10 14  1  1  0  0  0
 11 18  1  0  0  0  0
 11 26  1  1  0  0  0
 14 41  1  0  0  0  0
 14 42  1  0  0  0  0
 16 11  1  0  0  0  0
 17 25  1  0  0  0  0
 17 22  1  0  0  0  0
 18 17  1  0  0  0  0
 18 23  1  0  0  0  0
 19 25  1  0  0  0  0
 19 27  5  1  0  0  0
 19 31  5  0  0  0  0
 20 18  1  0  0  0  0
 21 17  1  0  0  0  0
 25 16  1  0  0  0  0
 25 24  1  1  0  0  0
 27 28  5  0  0  0  0
 27 34  1  0  0  0  0
 28 33  1  0  0  0  0
 29 28  5  0  0  0  0
 29 32  1  1  0  0  0
 30 29  5  0  0  0  0
 30 36  1  0  0  0  0
 31 30  5  0  0  0  0
 31 35  1  0  0  0  0
 37 38  1  0  0  0  0
 37 39  1  0  0  0  0
 37 40  1  0  0  0  0
 37 14  1  0  0  0  0
 43 32  2  0  0  0  0
 44 43  1  0  0  0  0
 44 46  2  0  0  0  0
 45 44  1  0  0  0  0
 47 45  1  0  0  0  0
M  END
