42

O          1.36000       -0.15800        0.00000
C          0.14300        0.41100       -0.00000
O         -0.88000       -0.25900        0.00000
C          0.14300        1.89300       -0.00000
H          2.10600        0.46000       -0.00000
C         -1.11400        2.38900       -0.00000
C         -1.30900        3.70100       -0.00000
C         -0.24500        4.49000        0.00000
C          1.02600        4.05500        0.00000
C          1.21900        2.72300       -0.00000
C         -0.58900        5.80900        0.00000
H         -2.30600        4.13700        0.00000
H         -2.01000        1.78100       -0.00000
H          2.24900        2.38800       -0.00000
H          1.87400        4.74700        0.00000
C         -0.73000        6.96900        0.00000
C         -0.10600        8.24300        0.00000
C          0.39000        9.30300        0.00000
C          0.36800       10.66700       -0.00000
C         -0.86800       11.19400       -0.00000
C         -0.96500       12.51800       -0.00000
C          0.15300       13.28300        0.00000
C          1.36800       12.67300        0.00000
C          1.48700       11.35300        0.00000
C          0.03800       14.73600       -0.00000
H         -1.98200       12.88800       -0.00000
H         -1.76900       10.58200       -0.00000
H          2.45800       10.86000        0.00000
H          2.31700       13.20000        0.00000
C         -1.17000       15.34900       -0.00000
C         -1.26800       16.68300       -0.00000
C         -0.15200       17.43600        0.00000
C          1.05900       16.84700        0.00000
C          1.14600       15.51200       -0.00000
C         -0.20000       18.89900       -0.00000
H         -2.26400       17.12200        0.00000
H         -2.11100       14.80900       -0.00000
H          2.15200       15.10500       -0.00000
H          1.97700       17.42200        0.00000
O         -1.45400       19.36600       -0.00000
O          0.76000       19.65300       -0.00000
H         -1.33300       20.33300        0.00000
