
 OpenBabel11042013073D

 30 31  0  0  1  0  0  0  0  0999 V2000
    1.1450   -0.5440   -0.0250 O   0  0  0  0  0  0  0  0  0  0  0  0
   -0.0190    0.1350   -0.0850 C   0  0  0  0  0  0  0  0  0  0  0  0
   -1.0950   -0.4450   -0.1300 O   0  0  0  0  0  0  0  0  0  0  0  0
    0.1010    1.6180   -0.0630 C   0  0  1  0  0  0  0  0  0  0  0  0
    1.9480    0.0120    0.0080 H   0  0  0  0  0  0  0  0  0  0  0  0
   -1.0400    2.3320   -0.0920 C   0  0  0  0  0  0  0  0  0  0  0  0
   -0.9940    3.6730   -0.0460 C   0  0  0  0  0  0  0  0  0  0  0  0
    0.1710    4.3780    0.0510 C   0  0  1  0  0  0  0  0  0  0  0  0
    1.3010    3.6280    0.0500 C   0  0  1  0  0  0  0  0  0  0  0  0
    1.2650    2.2840   -0.0130 C   0  0  2  0  0  0  0  0  0  0  0  0
    0.1470    5.8740    0.1080 C   0  0  2  0  0  0  0  0  0  0  0  0
   -1.9730    4.1460   -0.0990 H   0  0  0  0  0  0  0  0  0  0  0  0
   -2.0110    1.8400   -0.1560 H   0  0  0  0  0  0  0  0  0  0  0  0
    2.4360    1.6080   -0.0280 F   0  0  0  0  0  0  0  0  0  0  0  0
    2.5260    4.1920    0.1020 F   0  0  0  0  0  0  0  0  0  0  0  0
   -1.0350    6.5300    0.2230 C   0  0  0  0  0  0  0  0  0  0  0  0
   -1.1550    7.8650    0.1490 C   0  0  1  0  0  0  0  0  0  0  0  0
   -0.0480    8.6280    0.0330 C   0  0  1  0  0  0  0  0  0  0  0  0
    1.1560    8.0120   -0.0030 C   0  0  0  0  0  0  0  0  0  0  0  0
    1.2470    6.6660    0.0190 C   0  0  0  0  0  0  0  0  0  0  0  0
   -0.0280   10.1140   -0.0790 C   0  0  0  0  0  0  0  0  0  0  0  0
   -2.4850    8.3720    0.1690 N   0  0  0  0  0  0  0  0  0  0  0  0
   -1.9630    5.9910    0.3660 H   0  0  0  0  0  0  0  0  0  0  0  0
    2.2500    6.2570   -0.0550 H   0  0  0  0  0  0  0  0  0  0  0  0
    2.0740    8.5950   -0.0820 H   0  0  0  0  0  0  0  0  0  0  0  0
   -2.5760    9.3120   -0.2160 H   0  0  0  0  0  0  0  0  0  0  0  0
   -3.2140    7.7480   -0.1570 H   0  0  0  0  0  0  0  0  0  0  0  0
   -1.2420   10.6960   -0.0380 O   0  0  0  0  0  0  0  0  0  0  0  0
    0.9670   10.8070   -0.2200 O   0  0  0  0  0  0  0  0  0  0  0  0
   -1.0400   11.6530   -0.0770 H   0  0  0  0  0  0  0  0  0  0  0  0
  1  5  1  0  0  0  0
  2  1  1  0  0  0  0
  3  2  2  0  0  0  0
  4  2  1  1  0  0  0
  4 10  5  0  0  0  0
  6  4  5  0  0  0  0
  6  7  5  0  0  0  0
  6 13  1  0  0  0  0
  7 12  1  0  0  0  0
  8  7  5  6  0  0  0
  8 11  1  0  0  0  0
  9  8  5  0  0  0  0
  9 15  1  6  0  0  0
 10  9  5  0  0  0  0
 10 14  1  6  0  0  0
 11 16  5  6  0  0  0
 11 20  5  0  0  0  0
 16 17  5  0  0  0  0
 16 23  1  0  0  0  0
 17 22  1  6  0  0  0
 18 17  5  0  0  0  0
 18 21  1  6  0  0  0
 19 18  5  0  0  0  0
 19 25  1  0  0  0  0
 20 19  5  0  0  0  0
 20 24  1  0  0  0  0
 21 29  2  0  0  0  0
 22 26  1  0  0  0  0
 22 27  1  0  0  0  0
 28 21  1  0  0  0  0
 30 28  1  0  0  0  0
M  END
