39

O          1.20000        0.26700       -0.00000
C          0.03400        0.93100        0.00000
O         -1.04300        0.30600       -0.00000
C          0.02900        2.40300        0.00000
H          2.02500        0.76800        0.00000
C         -1.15800        3.07200        0.00000
C         -1.16200        4.42800        0.00000
C          0.00000        5.10900        0.00000
C          1.15400        4.41700        0.00000
C          1.17700        3.08700        0.00000
C          0.23100        6.53300       -0.00000
H         -2.11100        4.95400       -0.00000
H         -2.10900        2.52300       -0.00000
H          2.14200        2.61600        0.00000
H          2.11400        4.91600        0.00000
C         -0.52400        7.62200       -0.00000
N          0.17300        8.79900       -0.00000
H         -1.61700        7.60800        0.00000
H          1.29800        6.78200       -0.00000
N         -0.42800        9.88100        0.00000
C          0.41000       11.00800        0.00000
C         -0.13800       12.25100       -0.00000
C          0.15300       13.86200       -0.00000
H         -1.23700       12.04200       -0.00000
H          1.47800       10.81300       -0.00000
C          1.44500       14.71900        0.00000
C          1.20400       16.33400       -0.00000
N         -0.16800       16.36000        0.00000
N         -0.74000       15.10600       -0.00000
C          1.46500       18.13200        0.00000
H         -1.76000       15.02700        0.00000
H         -0.69700       17.23600       -0.00000
H          2.55800       14.80800        0.00000
H          2.30100       16.54700        0.00000
H          2.04600       13.77100       -0.00000
H         -0.90800       13.70100        0.00000
O          0.30900       18.91000       -0.00000
O          2.53200       18.73900       -0.00000
H          0.55600       19.87500        0.00000
