30

O         -0.27900        0.52600       -0.19400
C         -0.98700        1.52700       -0.76800
O         -1.98700        1.28300       -1.42900
C         -0.50600        2.90700       -0.42400
H          0.60700        0.82800        0.09000
C         -1.41300        3.91000       -0.26000
C         -0.95600        5.15000       -0.00700
C          0.35900        5.43900        0.08700
C          1.23800        4.42400       -0.05600
C          0.83000        3.15600       -0.31200
N          0.74500        6.73800        0.31800
H         -1.67700        5.95800        0.10100
C         -3.48900        2.91200        0.43400
C          2.95600        2.11300        0.21100
H          2.29300        4.67400        0.00100
H          3.48600        1.19100       -0.04900
H          2.76700        2.10100        1.28900
H          3.59300        2.95200       -0.07400
O          1.72100        2.10400       -0.50200
H         -4.14700        3.50000        1.08100
H         -4.11900        2.27200       -0.18900
H         -2.84200        2.29300        1.06300
O         -2.78400        3.80500       -0.42400
N          0.71100        7.45200       -0.71100
C          0.60600        8.75100       -0.38600
C          0.39200        9.90900       -0.16100
C          0.04500       11.27900        0.06100
O         -1.27500       11.52800       -0.02600
O          0.86100       12.15300        0.29700
H         -1.34900       12.48900        0.13300
