
 OpenBabel11042013073D

 32 33  0  0  1  0  0  0  0  0999 V2000
    1.8490    0.2700   -0.0170 O   0  0  0  0  0  0  0  0  0  0  0  0
    0.5910    0.7610    0.0330 C   0  0  0  0  0  0  0  0  0  0  0  0
   -0.3190   -0.0260    0.2120 O   0  0  0  0  0  0  0  0  0  0  0  0
    0.5020    2.2600   -0.0540 C   0  0  1  0  0  0  0  0  0  0  0  0
    1.7110   -0.6890    0.1580 H   0  0  0  0  0  0  0  0  0  0  0  0
   -0.7100    2.8940   -0.0470 C   0  0  2  0  0  0  0  0  0  0  0  0
   -0.7760    4.2680    0.0160 C   0  0  2  0  0  0  0  0  0  0  0  0
    0.3860    4.9880    0.0790 C   0  0  2  0  0  0  0  0  0  0  0  0
    1.5590    4.3280   -0.0030 C   0  0  0  0  0  0  0  0  0  0  0  0
    1.6390    2.9960   -0.0780 C   0  0  1  0  0  0  0  0  0  0  0  0
    0.4270    6.5030    0.3400 C   0  0  1  0  0  0  0  0  0  0  0  0
   -3.2500    4.5760   -0.1370 C   0  0  0  0  0  0  0  0  0  0  0  0
   -1.9080    2.0980   -0.0780 C   0  0  0  0  0  0  0  0  0  0  0  0
    2.9210    2.4770   -0.1390 O   0  0  0  0  0  0  0  0  0  0  0  0
    2.5090    4.8570    0.0340 H   0  0  0  0  0  0  0  0  0  0  0  0
   -3.5820    3.9880    0.7230 H   0  0  0  0  0  0  0  0  0  0  0  0
   -3.3490    4.0320   -1.0810 H   0  0  0  0  0  0  0  0  0  0  0  0
   -3.9100    5.4470   -0.2020 H   0  0  0  0  0  0  0  0  0  0  0  0
   -1.9260    5.0450    0.0700 O   0  0  0  0  0  0  0  0  0  0  0  0
    1.7280    7.2460    0.0990 C   0  0  0  0  0  0  0  0  0  0  0  0
    1.2110    8.5680   -0.0940 N   0  0  0  0  0  0  0  0  0  0  0  0
   -0.0860    8.5390   -0.5130 N   0  0  0  0  0  0  0  0  0  0  0  0
   -0.5120    7.3460   -0.4470 N   0  0  0  0  0  0  0  0  0  0  0  0
    1.9610    9.7080    0.0060 C   0  0  0  0  0  0  0  0  0  0  0  0
    2.4350    7.2030    0.9320 H   0  0  0  0  0  0  0  0  0  0  0  0
    2.2310    6.9630   -0.8330 H   0  0  0  0  0  0  0  0  0  0  0  0
    0.1540    6.6350    1.3990 H   0  0  0  0  0  0  0  0  0  0  0  0
   -2.8960    1.4810   -0.1230 N   0  0  0  0  0  0  0  0  0  0  0  0
    2.9220    1.5020   -0.2280 H   0  0  0  0  0  0  0  0  0  0  0  0
    1.2690   10.8470   -0.1910 O   0  0  0  0  0  0  0  0  0  0  0  0
    3.1540    9.7640    0.2780 O   0  0  0  0  0  0  0  0  0  0  0  0
    1.9380   11.5480   -0.0600 H   0  0  0  0  0  0  0  0  0  0  0  0
  1  5  1  0  0  0  0
  2  1  1  0  0  0  0
  3  2  2  0  0  0  0
  4  2  1  1  0  0  0
  4 10  5  0  0  0  0
  6  4  5  0  0  0  0
  6  7  5  0  0  0  0
  6 13  1  1  0  0  0
  7 19  1  1  0  0  0
  8  7  5  0  0  0  0
  8  9  5  1  0  0  0
  8 11  1  0  0  0  0
  9 15  1  0  0  0  0
 10  9  5  0  0  0  0
 10 14  1  1  0  0  0
 11 23  1  0  0  0  0
 11 27  1  1  0  0  0
 12 16  1  0  0  0  0
 12 17  1  0  0  0  0
 12 18  1  0  0  0  0
 12 19  1  0  0  0  0
 13 28  3  0  0  0  0
 14 29  1  0  0  0  0
 20 11  1  0  0  0  0
 20 25  1  0  0  0  0
 20 26  1  0  0  0  0
 21 20  1  0  0  0  0
 22 21  1  0  0  0  0
 23 22  2  0  0  0  0
 24 21  1  0  0  0  0
 24 31  2  0  0  0  0
 30 24  1  0  0  0  0
 32 30  1  0  0  0  0
M  END
