22

O          0.55500        0.26200       -0.50800
C         -0.47300        0.90400        0.09800
O         -1.38200        0.28500        0.62800
C         -0.37700        2.39900        0.03900
H          1.28800        0.87100       -0.75600
C         -1.49400        3.15800       -0.09800
C         -1.39600        4.50600       -0.17200
C         -0.19800        5.13600       -0.12500
C          0.89900        4.36200        0.00400
C          0.82900        3.01900        0.09900
N         -0.02400        6.49900       -0.22600
H         -2.30100        5.09900       -0.28900
Cl        -3.10100        2.50400       -0.23000
N          2.06900        2.28900        0.24300
F          2.11900        4.95400        0.05000
H          2.86700        2.92000        0.37200
H          2.06000        1.64300        1.03900
N         -0.96000        7.25300        0.11200
C         -0.59000        8.57200        0.00600
O         -1.65500        9.39200        0.12700
O          0.51900        9.05800       -0.16600
H         -1.24800       10.27600        0.03400
