31

O          1.29200       -0.15900        0.29700
C          0.08800        0.44300        0.20100
O         -0.93000       -0.22700        0.12600
C          0.12100        1.94700        0.13100
H          2.05600        0.40200        0.50300
C         -1.00400        2.65500        0.35800
C         -0.98600        3.99900        0.22500
C          0.11900        4.68600       -0.15800
C          1.24300        3.96200       -0.40000
C          1.23300        2.61600       -0.24600
C          0.01000        6.20300       -0.37300
H         -1.92300        4.52300        0.41600
O         -2.19600        2.04700        0.70300
H          2.14700        2.08000       -0.48700
Br         2.86000        4.70200       -1.04600
C          1.07400        7.15100        0.15700
N          0.25900        8.33400        0.32600
N         -1.04700        7.99900        0.53900
N         -1.20000        6.78300        0.26900
C          0.67100        9.64200        0.17100
H          1.88600        7.32100       -0.55500
H          1.48300        6.83200        1.12200
H         -0.11200        6.36300       -1.45300
C         -0.13800       10.70600        0.13600
C          0.35800       12.07500        0.01000
H         -1.21400       10.58900        0.21600
H          1.74900        9.75400        0.06100
H         -2.93700        2.35600        0.15700
O         -0.67900       12.92700        0.05100
O          1.51100       12.44300       -0.09300
H         -0.27700       13.81800        0.00300
