
 OpenBabel11042013073D

 31 32  0  0  1  0  0  0  0  0999 V2000
    1.2920   -0.1590    0.2970 O   0  0  0  0  0  0  0  0  0  0  0  0
    0.0880    0.4430    0.2010 C   0  0  0  0  0  0  0  0  0  0  0  0
   -0.9300   -0.2270    0.1260 O   0  0  0  0  0  0  0  0  0  0  0  0
    0.1210    1.9470    0.1310 C   0  0  2  0  0  0  0  0  0  0  0  0
    2.0560    0.4020    0.5030 H   0  0  0  0  0  0  0  0  0  0  0  0
   -1.0040    2.6550    0.3580 C   0  0  1  0  0  0  0  0  0  0  0  0
   -0.9860    3.9990    0.2250 C   0  0  0  0  0  0  0  0  0  0  0  0
    0.1190    4.6860   -0.1580 C   0  0  1  0  0  0  0  0  0  0  0  0
    1.2430    3.9620   -0.4000 C   0  0  1  0  0  0  0  0  0  0  0  0
    1.2330    2.6160   -0.2460 C   0  0  0  0  0  0  0  0  0  0  0  0
    0.0100    6.2030   -0.3730 C   0  0  2  0  0  0  0  0  0  0  0  0
   -1.9230    4.5230    0.4160 H   0  0  0  0  0  0  0  0  0  0  0  0
   -2.1960    2.0470    0.7030 O   0  0  0  0  0  0  0  0  0  0  0  0
    2.1470    2.0800   -0.4870 H   0  0  0  0  0  0  0  0  0  0  0  0
    2.8600    4.7020   -1.0460 Br  0  0  0  0  0  0  0  0  0  0  0  0
    1.0740    7.1510    0.1570 C   0  0  0  0  0  0  0  0  0  0  0  0
    0.2590    8.3340    0.3260 N   0  0  0  0  0  0  0  0  0  0  0  0
   -1.0470    7.9990    0.5390 N   0  0  0  0  0  0  0  0  0  0  0  0
   -1.2000    6.7830    0.2690 N   0  0  0  0  0  0  0  0  0  0  0  0
    0.6710    9.6420    0.1710 C   0  0  0  0  0  0  0  0  0  0  0  0
    1.8860    7.3210   -0.5550 H   0  0  0  0  0  0  0  0  0  0  0  0
    1.4830    6.8320    1.1220 H   0  0  0  0  0  0  0  0  0  0  0  0
   -0.1120    6.3630   -1.4530 H   0  0  0  0  0  0  0  0  0  0  0  0
   -0.1380   10.7060    0.1360 C   0  0  0  0  0  0  0  0  0  0  0  0
    0.3580   12.0750    0.0100 C   0  0  0  0  0  0  0  0  0  0  0  0
   -1.2140   10.5890    0.2160 H   0  0  0  0  0  0  0  0  0  0  0  0
    1.7490    9.7540    0.0610 H   0  0  0  0  0  0  0  0  0  0  0  0
   -2.9370    2.3560    0.1570 H   0  0  0  0  0  0  0  0  0  0  0  0
   -0.6790   12.9270    0.0510 O   0  0  0  0  0  0  0  0  0  0  0  0
    1.5110   12.4430   -0.0930 O   0  0  0  0  0  0  0  0  0  0  0  0
   -0.2770   13.8180    0.0030 H   0  0  0  0  0  0  0  0  0  0  0  0
  1  5  1  0  0  0  0
  2  1  1  0  0  0  0
  3  2  2  0  0  0  0
  4  2  1  6  0  0  0
  4 10  5  0  0  0  0
  6  4  5  0  0  0  0
  6  7  5  0  0  0  0
  6 13  1  6  0  0  0
  7 12  1  0  0  0  0
  8  7  5  6  0  0  0
  8 11  1  0  0  0  0
  9  8  5  0  0  0  0
  9 15  1  6  0  0  0
 10  9  5  0  0  0  0
 10 14  1  0  0  0  0
 11 19  1  0  0  0  0
 11 23  1  6  0  0  0
 13 28  1  0  0  0  0
 16 11  1  0  0  0  0
 16 21  1  0  0  0  0
 16 22  1  0  0  0  0
 17 16  1  0  0  0  0
 18 17  1  0  0  0  0
 19 18  2  0  0  0  0
 20 17  1  0  0  0  0
 20 27  1  0  0  0  0
 24 20  2  0  0  0  0
 24 26  1  0  0  0  0
 25 24  1  0  0  0  0
 25 30  2  0  0  0  0
 29 25  1  0  0  0  0
 31 29  1  0  0  0  0
M  END
