
 OpenBabel10082100493D

 38 40  0  0  1  0  0  0  0  0999 V2000
    1.9290   -0.3560    0.1800 O   0  0  0  0  0  0  0  0  0  0  0  0
    0.7400    0.1610    0.2530 C   0  0  0  0  0  0  0  0  0  0  0  0
   -0.2010   -0.5880    0.4330 O   0  0  0  0  0  0  0  0  0  0  0  0
    0.5080    1.5590    0.0390 C   0  0  0  0  0  0  0  0  0  0  0  0
    2.5030    0.4170    0.0000 H   0  0  0  0  0  0  0  0  0  0  0  0
   -0.7570    1.9790   -0.1110 C   0  0  0  0  0  0  0  0  0  0  0  0
   -1.0350    3.2570   -0.3510 C   0  0  0  0  0  0  0  0  0  0  0  0
   -0.0650    4.1680   -0.4400 C   0  0  0  0  0  0  0  0  0  0  0  0
    1.1950    3.7580   -0.2650 C   0  0  0  0  0  0  0  0  0  0  0  0
    1.4970    2.4800   -0.0360 C   0  0  0  0  0  0  0  0  0  0  0  0
   -0.4620    5.6110   -0.7230 C   0  0  2  0  0  0  0  0  0  0  0  0
   -2.0730    3.5570   -0.4740 H   0  0  0  0  0  0  0  0  0  0  0  0
   -1.5930    1.2860   -0.0550 H   0  0  0  0  0  0  0  0  0  0  0  0
    3.1940    2.1760    0.1530 Cl  0  0  0  0  0  0  0  0  0  0  0  0
    2.0190    4.4600   -0.3030 H   0  0  0  0  0  0  0  0  0  0  0  0
    0.6470    6.6350   -0.9750 C   0  0  0  0  0  0  0  0  0  0  0  0
    0.5640    7.4030    0.2490 N   0  0  0  0  0  0  0  0  0  0  0  0
   -0.4970    7.1080    1.0150 N   0  0  0  0  0  0  0  0  0  0  0  0
   -1.1400    6.1390    0.4880 N   0  0  0  0  0  0  0  0  0  0  0  0
    1.4140    8.4240    0.4520 N   0  0  0  0  0  0  0  0  0  0  0  0
    0.3880    7.2710   -1.8250 H   0  0  0  0  0  0  0  0  0  0  0  0
    1.6450    6.2250   -1.1200 H   0  0  0  0  0  0  0  0  0  0  0  0
   -1.1600    5.6380   -1.5640 H   0  0  0  0  0  0  0  0  0  0  0  0
    1.1610    9.1010    1.5050 N   0  0  0  0  0  0  0  0  0  0  0  0
    0.9500   10.3070    1.0920 C   0  0  0  0  0  0  0  0  0  0  0  0
   -0.3060   10.7490    1.0040 C   0  0  0  0  0  0  0  0  0  0  0  0
   -0.5660   11.9840    0.6050 C   0  0  0  0  0  0  0  0  0  0  0  0
    0.4240   12.8270    0.2910 C   0  0  0  0  0  0  0  0  0  0  0  0
    1.6850   12.3900    0.3430 C   0  0  0  0  0  0  0  0  0  0  0  0
    1.9410   11.1460    0.7470 C   0  0  0  0  0  0  0  0  0  0  0  0
    0.1160   14.1590   -0.0630 C   0  0  0  0  0  0  0  0  0  0  0  0
   -1.6130   12.2830    0.5310 H   0  0  0  0  0  0  0  0  0  0  0  0
   -1.1420   10.0980    1.2540 H   0  0  0  0  0  0  0  0  0  0  0  0
    2.9750   10.8140    0.8090 H   0  0  0  0  0  0  0  0  0  0  0  0
    2.5140   13.0500    0.0920 H   0  0  0  0  0  0  0  0  0  0  0  0
   -0.9650   14.5640    0.5410 O   0  0  0  0  0  0  0  0  0  0  0  0
    0.8940   14.8990   -0.6330 O   0  0  0  0  0  0  0  0  0  0  0  0
   -1.3450   15.2410    0.0000 H   0  0  0  0  0  0  0  0  0  0  0  0
  1  5  1  0  0  0  0
  2  1  1  0  0  0  0
  3  2  2  0  0  0  0
  4  2  1  0  0  0  0
  4 10  2  0  0  0  0
  6  4  1  0  0  0  0
  6  7  2  0  0  0  0
  6 13  1  0  0  0  0
  7 12  1  0  0  0  0
  8  7  1  0  0  0  0
  8 11  1  0  0  0  0
  9  8  2  0  0  0  0
  9 15  1  0  0  0  0
 10  9  1  0  0  0  0
 10 14  1  0  0  0  0
 11 19  1  0  0  0  0
 11 23  1  6  0  0  0
 16 11  1  0  0  0  0
 16 21  1  0  0  0  0
 16 22  1  0  0  0  0
 17 16  1  0  0  0  0
 18 17  1  0  0  0  0
 19 18  2  0  0  0  0
 20 17  1  0  0  0  0
 24 20  2  0  0  0  0
 25 24  1  0  0  0  0
 25 30  2  0  0  0  0
 26 25  1  0  0  0  0
 26 27  2  0  0  0  0
 26 33  1  0  0  0  0
 27 32  1  0  0  0  0
 28 27  1  0  0  0  0
 28 31  1  0  0  0  0
 29 28  2  0  0  0  0
 29 35  1  0  0  0  0
 30 29  1  0  0  0  0
 30 34  1  0  0  0  0
 31 37  2  0  0  0  0
 36 31  1  0  0  0  0
 38 36  1  0  0  0  0
M  END
