
 OpenBabel11042013073D

 45 47  0  0  1  0  0  0  0  0999 V2000
    1.2670   -0.7260    0.0230 O   0  0  0  0  0  0  0  0  0  0  0  0
    0.1200   -0.0320    0.1810 C   0  0  0  0  0  0  0  0  0  0  0  0
   -0.9320   -0.5950    0.4450 O   0  0  0  0  0  0  0  0  0  0  0  0
    0.2360    1.4450   -0.0140 C   0  0  1  0  0  0  0  0  0  0  0  0
    2.0240   -0.2250   -0.3220 H   0  0  0  0  0  0  0  0  0  0  0  0
   -0.9260    2.1180   -0.1810 C   0  0  0  0  0  0  0  0  0  0  0  0
   -0.9220    3.4580   -0.3290 C   0  0  0  0  0  0  0  0  0  0  0  0
    0.2310    4.1510   -0.3160 C   0  0  1  0  0  0  0  0  0  0  0  0
    1.3870    3.4740   -0.1620 C   0  0  0  0  0  0  0  0  0  0  0  0
    1.3960    2.1380    0.0040 C   0  0  0  0  0  0  0  0  0  0  0  0
    0.2290    5.5150   -0.4590 N   0  0  0  0  0  0  0  0  0  0  0  0
   -1.8670    3.9880   -0.4490 H   0  0  0  0  0  0  0  0  0  0  0  0
   -1.8850    1.5930   -0.1820 H   0  0  0  0  0  0  0  0  0  0  0  0
    2.3610    1.6670    0.1520 H   0  0  0  0  0  0  0  0  0  0  0  0
    2.3250    4.0280   -0.1510 H   0  0  0  0  0  0  0  0  0  0  0  0
    0.4080    6.1300    0.6140 N   0  0  0  0  0  0  0  0  0  0  0  0
    0.5290    7.4830    0.4850 C   0  0  0  0  0  0  0  0  0  0  0  0
   -0.2920    8.2800   -0.2190 C   0  0  0  0  0  0  0  0  0  0  0  0
   -0.1570    9.7250   -0.2850 C   0  0  1  0  0  0  0  0  0  0  0  0
   -1.1630    7.8370   -0.6970 H   0  0  0  0  0  0  0  0  0  0  0  0
    1.3590    7.8970    1.0480 H   0  0  0  0  0  0  0  0  0  0  0  0
   -1.2710   10.4780   -0.4120 C   0  0  0  0  0  0  0  0  0  0  0  0
   -1.2040   11.8180   -0.3340 C   0  0  0  0  0  0  0  0  0  0  0  0
   -0.0240   12.4480   -0.1250 C   0  0  2  0  0  0  0  0  0  0  0  0
    1.1010   11.6970   -0.1310 C   0  0  0  0  0  0  0  0  0  0  0  0
    1.0360   10.3550   -0.2160 C   0  0  0  0  0  0  0  0  0  0  0  0
    0.0500   13.9030    0.2930 C   0  0  1  0  0  0  0  0  0  0  0  0
   -2.1420   12.3630   -0.3660 H   0  0  0  0  0  0  0  0  0  0  0  0
   -2.2510   10.0130   -0.5110 H   0  0  0  0  0  0  0  0  0  0  0  0
    1.9610    9.7920   -0.1680 H   0  0  0  0  0  0  0  0  0  0  0  0
    2.0730   12.1670    0.0010 H   0  0  0  0  0  0  0  0  0  0  0  0
    0.9300   14.7560   -0.4580 O   0  0  0  0  0  0  0  0  0  0  0  0
   -0.7920   16.1240    0.3750 C   0  0  0  0  0  0  0  0  0  0  0  0
   -1.2520   14.6860    0.3480 C   0  0  0  0  0  0  0  0  0  0  0  0
    1.2550   17.2990   -0.5670 C   0  0  0  0  0  0  0  0  0  0  0  0
   -1.8600   14.5330   -0.5500 H   0  0  0  0  0  0  0  0  0  0  0  0
   -1.3110   16.6890   -0.4080 H   0  0  0  0  0  0  0  0  0  0  0  0
   -1.0160   16.6090    1.3310 H   0  0  0  0  0  0  0  0  0  0  0  0
   -1.8520   14.4150    1.2220 H   0  0  0  0  0  0  0  0  0  0  0  0
    1.2330   16.0330    1.1030 H   0  0  0  0  0  0  0  0  0  0  0  0
    0.7140   16.0510    0.1320 C   0  0  2  0  0  0  0  0  0  0  0  0
    0.4630   13.8720    1.3130 H   0  0  0  0  0  0  0  0  0  0  0  0
    0.6190   18.4260   -0.1730 O   0  0  0  0  0  0  0  0  0  0  0  0
    2.2120   17.3730   -1.3180 O   0  0  0  0  0  0  0  0  0  0  0  0
    1.0860   19.1470   -0.6450 H   0  0  0  0  0  0  0  0  0  0  0  0
  1  5  1  0  0  0  0
  2  1  1  0  0  0  0
  3  2  2  0  0  0  0
  4  2  1  1  0  0  0
  4 10  5  0  0  0  0
  6  4  5  0  0  0  0
  6  7  5  0  0  0  0
  6 13  1  0  0  0  0
  7 12  1  0  0  0  0
  8  7  5  0  0  0  0
  8 11  1  6  0  0  0
  9  8  5  0  0  0  0
  9 15  1  0  0  0  0
 10  9  5  0  0  0  0
 10 14  1  0  0  0  0
 16 11  2  0  0  0  0
 17 16  1  0  0  0  0
 17 21  1  0  0  0  0
 18 17  2  0  0  0  0
 18 20  1  0  0  0  0
 19 18  1  1  0  0  0
 19 26  5  0  0  0  0
 22 19  5  0  0  0  0
 22 23  5  0  0  0  0
 22 29  1  0  0  0  0
 23 28  1  0  0  0  0
 24 23  5  1  0  0  0
 24 27  1  0  0  0  0
 25 24  5  0  0  0  0
 25 31  1  0  0  0  0
 26 25  5  0  0  0  0
 26 30  1  0  0  0  0
 27 34  1  0  0  0  0
 27 42  1  1  0  0  0
 32 27  1  0  0  0  0
 33 41  1  0  0  0  0
 33 38  1  0  0  0  0
 34 33  1  0  0  0  0
 34 39  1  0  0  0  0
 35 41  1  0  0  0  0
 35 44  2  0  0  0  0
 36 34  1  0  0  0  0
 37 33  1  0  0  0  0
 41 32  1  0  0  0  0
 41 40  1  1  0  0  0
 43 35  1  0  0  0  0
 45 43  1  0  0  0  0
M  END
