30

O          1.15700        0.06600        0.06400
C          0.00100        0.75700       -0.00400
O         -1.06800        0.17400       -0.11700
C          0.11400        2.25400        0.02500
H          1.97900        0.56300        0.19100
C         -1.04700        2.94100        0.00200
C         -1.04100        4.28500       -0.06800
C          0.11100        4.99500       -0.10600
C          1.29200        4.31100       -0.01600
C          1.26800        2.95100        0.03700
N          0.13000        6.35300       -0.33000
F         -2.23500        4.91800       -0.14200
H         -2.00600        2.42800        0.00600
H          2.22800        2.44800        0.06500
C          2.69300        4.93400        0.00200
N         -0.49100        7.13600        0.41700
C         -0.09100        8.43500        0.20600
C          2.88200        6.41900       -0.27000
H          2.44900        6.71200       -1.23200
H          3.94600        6.67000       -0.30100
H          2.44600        7.01400        0.53600
H          3.31800        4.40000       -0.72600
H          3.12500        4.73600        0.99300
C         -0.89700        9.49900        0.17800
C         -0.29300       10.81900       -0.04300
H         -1.96700        9.42500        0.30600
H          0.97700        8.58700        0.05300
O         -1.24100       11.76700       -0.02800
O          0.88600       11.07100       -0.21200
H         -0.75100       12.60500       -0.16500
