
 OpenBabel11042013073D

 30 30  0  0  1  0  0  0  0  0999 V2000
    1.1570    0.0660    0.0640 O   0  0  0  0  0  0  0  0  0  0  0  0
    0.0010    0.7570   -0.0040 C   0  0  0  0  0  0  0  0  0  0  0  0
   -1.0680    0.1740   -0.1170 O   0  0  0  0  0  0  0  0  0  0  0  0
    0.1140    2.2540    0.0250 C   0  0  2  0  0  0  0  0  0  0  0  0
    1.9790    0.5630    0.1910 H   0  0  0  0  0  0  0  0  0  0  0  0
   -1.0470    2.9410    0.0020 C   0  0  0  0  0  0  0  0  0  0  0  0
   -1.0410    4.2850   -0.0680 C   0  0  1  0  0  0  0  0  0  0  0  0
    0.1110    4.9950   -0.1060 C   0  0  1  0  0  0  0  0  0  0  0  0
    1.2920    4.3110   -0.0160 C   0  0  1  0  0  0  0  0  0  0  0  0
    1.2680    2.9510    0.0370 C   0  0  0  0  0  0  0  0  0  0  0  0
    0.1300    6.3530   -0.3300 N   0  0  0  0  0  0  0  0  0  0  0  0
   -2.2350    4.9180   -0.1420 F   0  0  0  0  0  0  0  0  0  0  0  0
   -2.0060    2.4280    0.0060 H   0  0  0  0  0  0  0  0  0  0  0  0
    2.2280    2.4480    0.0650 H   0  0  0  0  0  0  0  0  0  0  0  0
    2.6930    4.9340    0.0020 C   0  0  0  0  0  0  0  0  0  0  0  0
   -0.4910    7.1360    0.4170 N   0  0  0  0  0  0  0  0  0  0  0  0
   -0.0910    8.4350    0.2060 C   0  0  0  0  0  0  0  0  0  0  0  0
    2.8820    6.4190   -0.2700 C   0  0  0  0  0  0  0  0  0  0  0  0
    2.4490    6.7120   -1.2320 H   0  0  0  0  0  0  0  0  0  0  0  0
    3.9460    6.6700   -0.3010 H   0  0  0  0  0  0  0  0  0  0  0  0
    2.4460    7.0140    0.5360 H   0  0  0  0  0  0  0  0  0  0  0  0
    3.3180    4.4000   -0.7260 H   0  0  0  0  0  0  0  0  0  0  0  0
    3.1250    4.7360    0.9930 H   0  0  0  0  0  0  0  0  0  0  0  0
   -0.8970    9.4990    0.1780 C   0  0  0  0  0  0  0  0  0  0  0  0
   -0.2930   10.8190   -0.0430 C   0  0  0  0  0  0  0  0  0  0  0  0
   -1.9670    9.4250    0.3060 H   0  0  0  0  0  0  0  0  0  0  0  0
    0.9770    8.5870    0.0530 H   0  0  0  0  0  0  0  0  0  0  0  0
   -1.2410   11.7670   -0.0280 O   0  0  0  0  0  0  0  0  0  0  0  0
    0.8860   11.0710   -0.2120 O   0  0  0  0  0  0  0  0  0  0  0  0
   -0.7510   12.6050   -0.1650 H   0  0  0  0  0  0  0  0  0  0  0  0
  1  5  1  0  0  0  0
  2  1  1  0  0  0  0
  3  2  2  0  0  0  0
  4  2  1  6  0  0  0
  4 10  5  0  0  0  0
  6  4  5  0  0  0  0
  6  7  5  0  0  0  0
  6 13  1  0  0  0  0
  7 12  1  6  0  0  0
  8  7  5  0  0  0  0
  8 11  1  6  0  0  0
  9  8  5  0  0  0  0
  9 15  1  6  0  0  0
 10  9  5  0  0  0  0
 10 14  1  0  0  0  0
 15 22  1  0  0  0  0
 15 23  1  0  0  0  0
 16 11  2  0  0  0  0
 17 16  1  0  0  0  0
 17 27  1  0  0  0  0
 18 19  1  0  0  0  0
 18 20  1  0  0  0  0
 18 21  1  0  0  0  0
 18 15  1  0  0  0  0
 24 17  2  0  0  0  0
 24 26  1  0  0  0  0
 25 24  1  0  0  0  0
 25 29  2  0  0  0  0
 28 25  1  0  0  0  0
 30 28  1  0  0  0  0
M  END
