41

O          1.36900        1.89500       -0.59100
C          0.21400        2.56000       -0.39800
O         -0.86000        1.98300       -0.30300
C          0.34800        4.04500       -0.30600
H          2.14300        2.44200       -0.81300
C         -0.72400        4.77500       -0.65500
C         -0.75000        6.11900       -0.49700
C          0.31700        6.79000        0.04800
C          1.42300        6.03000        0.34700
C          1.42800        4.68400        0.17400
C          0.25800        8.27300        0.51300
C         -1.99200        6.73100       -0.87700
H         -1.61100        4.25700       -1.03100
H          2.30000        4.11300        0.48700
Br         3.01000        6.73600        1.11800
C          1.14900        9.39400       -0.06500
C          0.62500       10.59200        0.74000
N         -0.82900       10.33600        0.82100
N         -1.03700        8.96300        0.41000
C          0.88900       12.05400        0.32700
H         -1.74800        8.52300        1.00100
H         -1.30800       10.98600        0.17800
H          1.00700        9.51900       -1.14500
H          1.02200       10.49000        1.76100
H          2.21400        9.25300        0.12800
H          0.45900        8.20800        1.59500
C          2.29900       12.43100       -0.08100
C          2.10800       13.78900       -0.75400
N          0.67300       13.84900       -1.13800
N          0.08000       12.56100       -0.79300
C          2.49800       14.94900        0.16600
H          0.14300       11.91600       -1.58800
H          0.23500       14.61100       -0.59600
H          2.70000       11.71600       -0.80900
H          2.72000       13.88200       -1.65700
H          2.97100       12.46500        0.78300
H          0.61500       12.66400        1.20300
N         -3.03500        7.14000       -1.18100
O          1.55700       15.91200        0.28400
O          3.56300       15.06800        0.75400
H          1.97700       16.59300        0.85200
