
 OpenBabel11042013073D

 41 43  0  0  1  0  0  0  0  0999 V2000
    1.0800    0.4830   -0.1360 O   0  0  0  0  0  0  0  0  0  0  0  0
   -0.0450    1.2260   -0.1860 C   0  0  0  0  0  0  0  0  0  0  0  0
   -1.1440    0.6900   -0.2180 O   0  0  0  0  0  0  0  0  0  0  0  0
    0.1470    2.7190   -0.1670 C   0  0  1  0  0  0  0  0  0  0  0  0
    1.9160    0.9680   -0.0860 H   0  0  0  0  0  0  0  0  0  0  0  0
   -0.9920    3.4400   -0.1540 C   0  0  0  0  0  0  0  0  0  0  0  0
   -0.9590    4.7800   -0.0720 C   0  0  0  0  0  0  0  0  0  0  0  0
    0.2090    5.4660    0.0130 C   0  0  2  0  0  0  0  0  0  0  0  0
    1.3490    4.7390   -0.0530 C   0  0  0  0  0  0  0  0  0  0  0  0
    1.3230    3.3880   -0.1340 C   0  0  0  0  0  0  0  0  0  0  0  0
    0.1960    6.9730    0.2860 C   0  0  1  0  0  0  0  0  0  0  0  0
   -1.9160    5.2920   -0.0290 H   0  0  0  0  0  0  0  0  0  0  0  0
   -1.9650    2.9470   -0.1830 H   0  0  0  0  0  0  0  0  0  0  0  0
    2.2790    2.8790   -0.1510 H   0  0  0  0  0  0  0  0  0  0  0  0
    2.3160    5.2320    0.0110 H   0  0  0  0  0  0  0  0  0  0  0  0
    1.3260    7.9360   -0.1270 C   0  0  0  0  0  0  0  0  0  0  0  0
    0.7180    9.2400    0.3830 C   0  0  2  0  0  0  0  0  0  0  0  0
   -0.7240    9.1140    0.0920 N   0  0  0  0  0  0  0  0  0  0  0  0
   -0.9590    7.7140   -0.2510 N   0  0  0  0  0  0  0  0  0  0  0  0
    1.2050   10.5620   -0.0460 C   0  0  0  0  0  0  0  0  0  0  0  0
   -1.8210    7.3890    0.1900 H   0  0  0  0  0  0  0  0  0  0  0  0
   -0.9590    9.7140   -0.7060 H   0  0  0  0  0  0  0  0  0  0  0  0
    2.2720    7.7050    0.3740 H   0  0  0  0  0  0  0  0  0  0  0  0
    0.8220    9.2320    1.4770 H   0  0  0  0  0  0  0  0  0  0  0  0
    1.4950    7.9390   -1.2110 H   0  0  0  0  0  0  0  0  0  0  0  0
    0.1270    7.0160    1.3870 H   0  0  0  0  0  0  0  0  0  0  0  0
    1.2880   11.7620   -0.0740 C   0  0  0  0  0  0  0  0  0  0  0  0
    1.0910   13.1810    0.2570 C   0  0  1  0  0  0  0  0  0  0  0  0
    2.2050   14.1420   -0.0250 C   0  0  0  0  0  0  0  0  0  0  0  0
    1.4080   15.3090   -0.2940 N   0  0  0  0  0  0  0  0  0  0  0  0
    0.1350   14.9920   -0.6710 N   0  0  0  0  0  0  0  0  0  0  0  0
   -0.0280   13.7440   -0.5320 N   0  0  0  0  0  0  0  0  0  0  0  0
    1.8720   16.5610   -0.0730 N   0  0  0  0  0  0  0  0  0  0  0  0
    2.8670   14.2960    0.8310 H   0  0  0  0  0  0  0  0  0  0  0  0
    2.7830   13.9070   -0.9240 H   0  0  0  0  0  0  0  0  0  0  0  0
    0.8030   13.2470    1.3150 H   0  0  0  0  0  0  0  0  0  0  0  0
    0.9930   17.4380   -0.2100 N   0  0  0  0  0  0  0  0  0  0  0  0
    1.4860   18.6890    0.0500 C   0  0  0  0  0  0  0  0  0  0  0  0
    0.5090   19.6250    0.0140 O   0  0  0  0  0  0  0  0  0  0  0  0
    2.6280   19.0390    0.3090 O   0  0  0  0  0  0  0  0  0  0  0  0
    0.9960   20.4480    0.2180 H   0  0  0  0  0  0  0  0  0  0  0  0
  1  5  1  0  0  0  0
  2  1  1  0  0  0  0
  3  2  2  0  0  0  0
  4  2  1  1  0  0  0
  4 10  5  0  0  0  0
  6  4  5  0  0  0  0
  6  7  5  0  0  0  0
  6 13  1  0  0  0  0
  7 12  1  0  0  0  0
  8  7  5  1  0  0  0
  8 11  1  0  0  0  0
  9  8  5  0  0  0  0
  9 15  1  0  0  0  0
 10  9  5  0  0  0  0
 10 14  1  0  0  0  0
 11 19  1  0  0  0  0
 11 26  1  1  0  0  0
 16 11  1  0  0  0  0
 16 23  1  0  0  0  0
 16 25  1  0  0  0  0
 17 16  1  0  0  0  0
 17 24  1  1  0  0  0
 18 17  1  0  0  0  0
 19 18  1  0  0  0  0
 20 17  1  0  0  0  0
 21 19  1  0  0  0  0
 22 18  1  0  0  0  0
 27 20  3  0  0  0  0
 28 27  1  0  0  0  0
 28 32  1  0  0  0  0
 28 36  1  1  0  0  0
 29 28  1  0  0  0  0
 29 34  1  0  0  0  0
 29 35  1  0  0  0  0
 30 29  1  0  0  0  0
 31 30  1  0  0  0  0
 32 31  2  0  0  0  0
 33 30  1  0  0  0  0
 37 33  2  0  0  0  0
 38 37  1  0  0  0  0
 38 40  2  0  0  0  0
 39 38  1  0  0  0  0
 41 39  1  0  0  0  0
M  END
