43

O          1.12200        0.68800        0.09500
C         -0.03000        1.38800        0.16700
O         -1.11400        0.82000        0.18700
C          0.11100        2.87700        0.17700
H          1.93400        1.23000        0.07800
C         -1.02500        3.60100        0.17000
C         -0.97500        4.94400        0.10300
C          0.20200        5.62000        0.03300
C          1.33700        4.87900        0.09100
C          1.28800        3.53300        0.15700
C          0.22500        7.12900       -0.21900
H         -1.92600        5.46900        0.06200
H         -1.99800        3.10900        0.18900
F          2.45200        2.84600        0.16000
H          2.31300        5.35100        0.03700
C          1.36800        8.06800        0.22000
C          0.80000        9.41600       -0.27100
N         -0.65900        9.27500       -0.04300
N         -0.90600        7.89200        0.32100
C          1.34100       10.78100        0.14500
H         -1.80100        7.55900       -0.03300
H         -1.13600        9.53200       -0.91100
H          2.31100        7.82400       -0.28000
H          0.95800        9.40200       -1.36100
H          1.52600        8.05000        1.30600
H          0.16400        7.19000       -1.31900
C          0.54700       11.87700        0.12100
C          0.81900       13.31100        0.19100
H         -0.50400       11.68400       -0.07100
H          2.41300       10.86800        0.29500
C         -0.25800       14.13800        0.17300
C         -0.12700       15.47800        0.13300
C          1.09900       16.03300        0.11000
C          2.18400       15.22900        0.13900
C          2.04500       13.88400        0.17700
C          1.28400       17.50900        0.03100
H         -1.02500       16.09100        0.10500
H         -1.26700       13.73500        0.17100
H          2.94300       13.27200        0.17500
H          3.18200       15.66400        0.11500
O          0.12400       18.19700        0.02800
O          2.34900       18.09900       -0.03800
H          0.40600       19.13300       -0.03300
