
 OpenBabel11042013073D

 43 45  0  0  1  0  0  0  0  0999 V2000
    1.1220    0.6880    0.0950 O   0  0  0  0  0  0  0  0  0  0  0  0
   -0.0300    1.3880    0.1670 C   0  0  0  0  0  0  0  0  0  0  0  0
   -1.1140    0.8200    0.1870 O   0  0  0  0  0  0  0  0  0  0  0  0
    0.1110    2.8770    0.1770 C   0  0  2  0  0  0  0  0  0  0  0  0
    1.9340    1.2300    0.0780 H   0  0  0  0  0  0  0  0  0  0  0  0
   -1.0250    3.6010    0.1700 C   0  0  0  0  0  0  0  0  0  0  0  0
   -0.9750    4.9440    0.1030 C   0  0  0  0  0  0  0  0  0  0  0  0
    0.2020    5.6200    0.0330 C   0  0  1  0  0  0  0  0  0  0  0  0
    1.3370    4.8790    0.0910 C   0  0  0  0  0  0  0  0  0  0  0  0
    1.2880    3.5330    0.1570 C   0  0  2  0  0  0  0  0  0  0  0  0
    0.2250    7.1290   -0.2190 C   0  0  2  0  0  0  0  0  0  0  0  0
   -1.9260    5.4690    0.0620 H   0  0  0  0  0  0  0  0  0  0  0  0
   -1.9980    3.1090    0.1890 H   0  0  0  0  0  0  0  0  0  0  0  0
    2.4520    2.8460    0.1600 F   0  0  0  0  0  0  0  0  0  0  0  0
    2.3130    5.3510    0.0370 H   0  0  0  0  0  0  0  0  0  0  0  0
    1.3680    8.0680    0.2200 C   0  0  0  0  0  0  0  0  0  0  0  0
    0.8000    9.4160   -0.2710 C   0  0  1  0  0  0  0  0  0  0  0  0
   -0.6590    9.2750   -0.0430 N   0  0  0  0  0  0  0  0  0  0  0  0
   -0.9060    7.8920    0.3210 N   0  0  0  0  0  0  0  0  0  0  0  0
    1.3410   10.7810    0.1450 C   0  0  0  0  0  0  0  0  0  0  0  0
   -1.8010    7.5590   -0.0330 H   0  0  0  0  0  0  0  0  0  0  0  0
   -1.1360    9.5320   -0.9110 H   0  0  0  0  0  0  0  0  0  0  0  0
    2.3110    7.8240   -0.2800 H   0  0  0  0  0  0  0  0  0  0  0  0
    0.9580    9.4020   -1.3610 H   0  0  0  0  0  0  0  0  0  0  0  0
    1.5260    8.0500    1.3060 H   0  0  0  0  0  0  0  0  0  0  0  0
    0.1640    7.1900   -1.3190 H   0  0  0  0  0  0  0  0  0  0  0  0
    0.5470   11.8770    0.1210 C   0  0  0  0  0  0  0  0  0  0  0  0
    0.8190   13.3110    0.1910 C   0  0  2  0  0  0  0  0  0  0  0  0
   -0.5040   11.6840   -0.0710 H   0  0  0  0  0  0  0  0  0  0  0  0
    2.4130   10.8680    0.2950 H   0  0  0  0  0  0  0  0  0  0  0  0
   -0.2580   14.1380    0.1730 C   0  0  0  0  0  0  0  0  0  0  0  0
   -0.1270   15.4780    0.1330 C   0  0  0  0  0  0  0  0  0  0  0  0
    1.0990   16.0330    0.1100 C   0  0  1  0  0  0  0  0  0  0  0  0
    2.1840   15.2290    0.1390 C   0  0  0  0  0  0  0  0  0  0  0  0
    2.0450   13.8840    0.1770 C   0  0  0  0  0  0  0  0  0  0  0  0
    1.2840   17.5090    0.0310 C   0  0  0  0  0  0  0  0  0  0  0  0
   -1.0250   16.0910    0.1050 H   0  0  0  0  0  0  0  0  0  0  0  0
   -1.2670   13.7350    0.1710 H   0  0  0  0  0  0  0  0  0  0  0  0
    2.9430   13.2720    0.1750 H   0  0  0  0  0  0  0  0  0  0  0  0
    3.1820   15.6640    0.1150 H   0  0  0  0  0  0  0  0  0  0  0  0
    0.1240   18.1970    0.0280 O   0  0  0  0  0  0  0  0  0  0  0  0
    2.3490   18.0990   -0.0380 O   0  0  0  0  0  0  0  0  0  0  0  0
    0.4060   19.1330   -0.0330 H   0  0  0  0  0  0  0  0  0  0  0  0
  1  5  1  0  0  0  0
  2  1  1  0  0  0  0
  3  2  2  0  0  0  0
  4  2  1  6  0  0  0
  4 10  5  0  0  0  0
  6  4  5  0  0  0  0
  6  7  5  0  0  0  0
  6 13  1  0  0  0  0
  7 12  1  0  0  0  0
  8  7  5  6  0  0  0
  8 11  1  0  0  0  0
  9  8  5  0  0  0  0
  9 15  1  0  0  0  0
 10  9  5  0  0  0  0
 10 14  1  6  0  0  0
 11 19  1  0  0  0  0
 11 26  1  6  0  0  0
 16 11  1  0  0  0  0
 16 23  1  0  0  0  0
 16 25  1  0  0  0  0
 17 16  1  0  0  0  0
 17 24  1  6  0  0  0
 18 17  1  0  0  0  0
 19 18  1  0  0  0  0
 20 17  1  0  0  0  0
 20 30  1  0  0  0  0
 21 19  1  0  0  0  0
 22 18  1  0  0  0  0
 27 20  2  0  0  0  0
 27 29  1  0  0  0  0
 28 27  1  6  0  0  0
 28 35  5  0  0  0  0
 31 28  5  0  0  0  0
 31 32  5  0  0  0  0
 31 38  1  0  0  0  0
 32 37  1  0  0  0  0
 33 32  5  0  0  0  0
 33 36  1  6  0  0  0
 34 33  5  0  0  0  0
 34 40  1  0  0  0  0
 35 34  5  0  0  0  0
 35 39  1  0  0  0  0
 36 42  2  0  0  0  0
 41 36  1  0  0  0  0
 43 41  1  0  0  0  0
M  END
