23

O          1.34400        0.51300       -0.00000
C          0.17300        1.18500        0.00000
O         -0.85800        0.53100        0.00000
C          0.23400        2.69700        0.00000
H          2.19100        0.97700        0.00000
C         -0.91700        3.42500        0.00000
C         -0.83000        4.77100        0.00000
C          0.34900        5.42500        0.00000
C          1.51800        4.73000       -0.00000
C          1.41600        3.36800        0.00000
C          0.26700        6.84600       -0.00000
F         -1.97500        5.50800        0.00000
Br        -2.68700        2.73900        0.00000
H          2.35000        2.82000       -0.00000
C          2.85900        5.41800       -0.00000
H          2.78900        6.50100        0.00000
H          3.95400        5.57800        0.00000
H          3.43000        4.48400        0.00000
C          0.07400        8.03500       -0.00000
C         -0.13600        9.44900        0.00000
O         -1.42500        9.83900        0.00000
O          0.78500       10.24600        0.00000
H         -1.36700       10.81700       -0.00000
