
 OpenBabel11042013073D

 23 23  0  0  1  0  0  0  0  0999 V2000
    1.3440    0.5130   -0.0000 O   0  0  0  0  0  0  0  0  0  0  0  0
    0.1730    1.1850    0.0000 C   0  0  0  0  0  0  0  0  0  0  0  0
   -0.8580    0.5310    0.0000 O   0  0  0  0  0  0  0  0  0  0  0  0
    0.2340    2.6970    0.0000 C   0  0  1  0  0  0  0  0  0  0  0  0
    2.1910    0.9770    0.0000 H   0  0  0  0  0  0  0  0  0  0  0  0
   -0.9170    3.4250    0.0000 C   0  0  1  0  0  0  0  0  0  0  0  0
   -0.8300    4.7710    0.0000 C   0  0  1  0  0  0  0  0  0  0  0  0
    0.3490    5.4250    0.0000 C   0  0  1  0  0  0  0  0  0  0  0  0
    1.5180    4.7300   -0.0000 C   0  0  1  0  0  0  0  0  0  0  0  0
    1.4160    3.3680    0.0000 C   0  0  0  0  0  0  0  0  0  0  0  0
    0.2670    6.8460   -0.0000 C   0  0  0  0  0  0  0  0  0  0  0  0
   -1.9750    5.5080    0.0000 F   0  0  0  0  0  0  0  0  0  0  0  0
   -2.6870    2.7390    0.0000 Br  0  0  0  0  0  0  0  0  0  0  0  0
    2.3500    2.8200   -0.0000 H   0  0  0  0  0  0  0  0  0  0  0  0
    2.8590    5.4180   -0.0000 C   0  0  0  0  0  0  0  0  0  0  0  0
    2.7890    6.5010    0.0000 H   0  0  0  0  0  0  0  0  0  0  0  0
    3.9540    5.5780    0.0000 H   0  0  0  0  0  0  0  0  0  0  0  0
    3.4300    4.4840    0.0000 H   0  0  0  0  0  0  0  0  0  0  0  0
    0.0740    8.0350   -0.0000 C   0  0  0  0  0  0  0  0  0  0  0  0
   -0.1360    9.4490    0.0000 C   0  0  0  0  0  0  0  0  0  0  0  0
   -1.4250    9.8390    0.0000 O   0  0  0  0  0  0  0  0  0  0  0  0
    0.7850   10.2460    0.0000 O   0  0  0  0  0  0  0  0  0  0  0  0
   -1.3670   10.8170   -0.0000 H   0  0  0  0  0  0  0  0  0  0  0  0
  1  5  1  0  0  0  0
  2  1  1  0  0  0  0
  3  2  2  0  0  0  0
  4  2  1  1  0  0  0
  4 10  5  0  0  0  0
  6  4  5  0  0  0  0
  6  7  5  0  0  0  0
  6 13  1  6  0  0  0
  7 12  1  6  0  0  0
  8  7  5  0  0  0  0
  8 11  1  6  0  0  0
  9  8  5  0  0  0  0
  9 15  1  6  0  0  0
 10  9  5  0  0  0  0
 10 14  1  0  0  0  0
 15 16  1  0  0  0  0
 15 17  1  0  0  0  0
 15 18  1  0  0  0  0
 19 11  3  0  0  0  0
 20 19  1  0  0  0  0
 20 22  2  0  0  0  0
 21 20  1  0  0  0  0
 23 21  1  0  0  0  0
M  END
