32

O          1.35200       -0.24100        0.06000
C          0.20500        0.45400        0.05600
O         -0.87000       -0.12500        0.13100
C          0.31700        1.95400       -0.04200
H          2.16400        0.29100       -0.00700
C         -0.88500        2.58100       -0.07100
C         -0.99400        3.92100       -0.17500
C          0.13100        4.66600       -0.26500
C          1.32800        4.05300       -0.21800
C          1.44500        2.71100       -0.10400
C          0.12900        6.09700       -0.36400
O         -2.26900        4.46400       -0.16200
H         -1.81300        2.01100       -0.00800
Br         3.21300        2.05400       -0.02800
H          2.22400        4.66800       -0.26500
C          0.17200        7.29500       -0.25600
C          0.09400        8.67100        0.23000
O          0.87600        9.67100       -0.45800
C         -1.14000       10.70000        0.06800
C         -1.32400        9.20200        0.16300
C          0.79200       12.29600       -0.36600
H         -1.90400        8.89800        1.03900
H         -1.56100       11.06600       -0.87700
H         -1.64200       11.23000        0.88300
H         -1.85600        8.84100       -0.72700
H          0.70300       10.89200        1.15800
C          0.37300       10.89400        0.10800
H          0.45200        8.66300        1.26700
H         -2.26800        5.43600       -0.17900
O         -0.14000       13.23400       -0.06400
O          1.86800       12.63500       -0.82700
H          0.27200       14.09200       -0.30000
