
 OpenBabel11042013073D

 41 43  0  0  1  0  0  0  0  0999 V2000
    0.6340   -0.8300   -0.2640 O   0  0  0  0  0  0  0  0  0  0  0  0
   -0.5000   -0.0960   -0.2960 C   0  0  0  0  0  0  0  0  0  0  0  0
   -1.5980   -0.6240   -0.3970 O   0  0  0  0  0  0  0  0  0  0  0  0
   -0.2960    1.3830   -0.1300 C   0  0  1  0  0  0  0  0  0  0  0  0
    1.4240   -0.2420   -0.1840 H   0  0  0  0  0  0  0  0  0  0  0  0
   -1.4210    2.1240   -0.0270 C   0  0  0  0  0  0  0  0  0  0  0  0
   -1.3580    3.4420    0.2380 C   0  0  0  0  0  0  0  0  0  0  0  0
   -0.1690    4.0670    0.4190 C   0  0  2  0  0  0  0  0  0  0  0  0
    0.9560    3.3320    0.2390 C   0  0  0  0  0  0  0  0  0  0  0  0
    0.9010    2.0100   -0.0260 C   0  0  1  0  0  0  0  0  0  0  0  0
   -0.0600    5.5150    0.8910 C   0  0  1  0  0  0  0  0  0  0  0  0
   -2.2970    3.9820    0.3500 H   0  0  0  0  0  0  0  0  0  0  0  0
   -2.4030    1.6560   -0.1210 H   0  0  0  0  0  0  0  0  0  0  0  0
    2.1460    1.2840   -0.1480 N   0  0  0  0  0  0  0  0  0  0  0  0
    1.9230    3.8130    0.3580 H   0  0  0  0  0  0  0  0  0  0  0  0
    0.8190    6.4620    0.0960 C   0  0  0  0  0  0  0  0  0  0  0  0
    0.0510    7.6880    0.1870 N   0  0  0  0  0  0  0  0  0  0  0  0
   -1.2460    7.4120    0.5260 N   0  0  0  0  0  0  0  0  0  0  0  0
   -1.3610    6.2210    0.8970 N   0  0  0  0  0  0  0  0  0  0  0  0
    0.3100    8.7880   -0.7340 C   0  0  2  0  0  0  0  0  0  0  0  0
    1.8090    6.6010    0.5410 H   0  0  0  0  0  0  0  0  0  0  0  0
    0.9100    6.1710   -0.9540 H   0  0  0  0  0  0  0  0  0  0  0  0
    0.2840    5.4870    1.9340 H   0  0  0  0  0  0  0  0  0  0  0  0
    2.7730    1.5850    0.6080 H   0  0  0  0  0  0  0  0  0  0  0  0
    2.6600    1.6780   -0.9490 H   0  0  0  0  0  0  0  0  0  0  0  0
    1.4490    9.5260   -0.2700 O   0  0  0  0  0  0  0  0  0  0  0  0
   -0.5440   10.7290    0.3110 C   0  0  0  0  0  0  0  0  0  0  0  0
   -0.8130    9.8000   -0.8440 C   0  0  0  0  0  0  0  0  0  0  0  0
    1.5260   11.9420   -0.0600 C   0  0  0  0  0  0  0  0  0  0  0  0
   -1.8280    9.3790   -0.8150 H   0  0  0  0  0  0  0  0  0  0  0  0
   -0.9470   11.7290    0.1130 H   0  0  0  0  0  0  0  0  0  0  0  0
   -1.0190   10.3690    1.2300 H   0  0  0  0  0  0  0  0  0  0  0  0
   -0.7170   10.3480   -1.7850 H   0  0  0  0  0  0  0  0  0  0  0  0
    1.2610   10.5530    1.5050 H   0  0  0  0  0  0  0  0  0  0  0  0
    0.9790   10.6730    0.4540 C   0  0  2  0  0  0  0  0  0  0  0  0
    0.5330    8.3560   -1.7140 H   0  0  0  0  0  0  0  0  0  0  0  0
    1.5530   13.1080   -0.3540 C   0  0  0  0  0  0  0  0  0  0  0  0
    1.1690   14.4640   -0.5520 C   0  0  0  0  0  0  0  0  0  0  0  0
   -0.1640   14.6460   -0.3920 O   0  0  0  0  0  0  0  0  0  0  0  0
    1.9340   15.3760   -0.7920 O   0  0  0  0  0  0  0  0  0  0  0  0
   -0.3020   15.6100   -0.5050 H   0  0  0  0  0  0  0  0  0  0  0  0
  1  5  1  0  0  0  0
  2  1  1  0  0  0  0
  3  2  2  0  0  0  0
  4  2  1  1  0  0  0
  4 10  5  0  0  0  0
  6  4  5  0  0  0  0
  6  7  5  0  0  0  0
  6 13  1  0  0  0  0
  7 12  1  0  0  0  0
  8  7  5  1  0  0  0
  8 11  1  0  0  0  0
  9  8  5  0  0  0  0
  9 15  1  0  0  0  0
 10  9  5  0  0  0  0
 10 14  1  1  0  0  0
 11 19  1  0  0  0  0
 11 23  1  1  0  0  0
 14 24  1  0  0  0  0
 14 25  1  0  0  0  0
 16 11  1  0  0  0  0
 16 21  1  0  0  0  0
 16 22  1  0  0  0  0
 17 16  1  0  0  0  0
 18 17  1  0  0  0  0
 19 18  2  0  0  0  0
 20 17  1  0  0  0  0
 20 28  1  0  0  0  0
 20 36  1  6  0  0  0
 26 20  1  0  0  0  0
 27 35  1  0  0  0  0
 27 32  1  0  0  0  0
 28 27  1  0  0  0  0
 28 33  1  0  0  0  0
 29 35  1  0  0  0  0
 30 28  1  0  0  0  0
 31 27  1  0  0  0  0
 35 26  1  0  0  0  0
 35 34  1  1  0  0  0
 37 29  3  0  0  0  0
 38 37  1  0  0  0  0
 38 40  2  0  0  0  0
 39 38  1  0  0  0  0
 41 39  1  0  0  0  0
M  END
