41

O          0.63400       -0.83000       -0.26400
C         -0.50000       -0.09600       -0.29600
O         -1.59800       -0.62400       -0.39700
C         -0.29600        1.38300       -0.13000
H          1.42400       -0.24200       -0.18400
C         -1.42100        2.12400       -0.02700
C         -1.35800        3.44200        0.23800
C         -0.16900        4.06700        0.41900
C          0.95600        3.33200        0.23900
C          0.90100        2.01000       -0.02600
C         -0.06000        5.51500        0.89100
H         -2.29700        3.98200        0.35000
H         -2.40300        1.65600       -0.12100
N          2.14600        1.28400       -0.14800
H          1.92300        3.81300        0.35800
C          0.81900        6.46200        0.09600
N          0.05100        7.68800        0.18700
N         -1.24600        7.41200        0.52600
N         -1.36100        6.22100        0.89700
C          0.31000        8.78800       -0.73400
H          1.80900        6.60100        0.54100
H          0.91000        6.17100       -0.95400
H          0.28400        5.48700        1.93400
H          2.77300        1.58500        0.60800
H          2.66000        1.67800       -0.94900
O          1.44900        9.52600       -0.27000
C         -0.54400       10.72900        0.31100
C         -0.81300        9.80000       -0.84400
C          1.52600       11.94200       -0.06000
H         -1.82800        9.37900       -0.81500
H         -0.94700       11.72900        0.11300
H         -1.01900       10.36900        1.23000
H         -0.71700       10.34800       -1.78500
H          1.26100       10.55300        1.50500
C          0.97900       10.67300        0.45400
H          0.53300        8.35600       -1.71400
C          1.55300       13.10800       -0.35400
C          1.16900       14.46400       -0.55200
O         -0.16400       14.64600       -0.39200
O          1.93400       15.37600       -0.79200
H         -0.30200       15.61000       -0.50500
