35

O          1.51100       -0.14000       -0.34500
C          0.28500        0.33700       -0.05200
O         -0.65000       -0.40200        0.21600
C          0.19000        1.84400       -0.05900
H          2.13000        0.59300       -0.57200
C         -1.05500        2.32300        0.12400
C         -1.31400        3.64500        0.22200
C         -0.29400        4.55400        0.13000
C          0.94800        4.06000       -0.12800
C          1.19900        2.73100       -0.20800
C         -0.42900        6.06300        0.42500
Br        -3.13400        4.02500        0.57400
H         -1.87900        1.61600        0.23200
N          2.55700        2.28000       -0.39800
H          1.77800        4.76100       -0.21300
O          0.54200        6.96200       -0.20900
C         -1.36800        8.25400        0.23600
C         -1.73800        6.79500        0.18000
C          0.78800        9.47900       -0.31400
H         -2.48900        6.59900        0.94500
H         -1.79800        8.75500        1.11100
H         -1.76100        8.75100       -0.65800
H         -2.14500        6.56100       -0.81000
H          0.48100        8.26600        1.35600
C          0.15400        8.26100        0.30700
H         -0.20800        6.12500        1.50300
H          3.12600        3.02100       -0.82300
H          2.99800        2.18900        0.52700
C          0.15000       10.66700       -0.30500
C          0.74400       11.95800       -0.66500
H         -0.86600       10.75900        0.06500
H          1.82600        9.41500       -0.63400
O         -0.14400       12.93500       -0.41900
O          1.86900       12.16800       -1.06900
H          0.32700       13.76800       -0.61700
