43

O          1.20500       -0.79900        0.09800
C          0.12700       -0.01500        0.31300
O         -0.92600       -0.46700        0.73700
C          0.32600        1.42800       -0.02200
H          1.92800       -0.38100       -0.40000
C         -0.77800        2.15900       -0.28100
C         -0.67800        3.47800       -0.54300
C          0.52400        4.10500       -0.55700
C          1.61900        3.35000       -0.30000
C          1.53500        2.03200       -0.03000
N          0.71300        5.46000       -0.70700
H         -1.59000        4.04200       -0.72200
H         -1.76600        1.69900       -0.25800
H          2.45000        1.50700        0.21300
H          2.59400        3.83200       -0.28400
N         -0.28500        6.17900       -0.91700
C         -0.26400        7.35600       -0.03900
O          0.41300        8.57200       -0.43900
C         -1.57100        9.24700        0.61700
C         -1.69900        7.79100        0.22600
C          0.22100       11.00000        0.22500
H         -2.31600        7.70300       -0.67800
H         -1.94900        9.45400        1.62200
H         -2.16300        9.84600       -0.08200
H         -2.17300        7.18300        1.00200
H          0.41300        9.29300        1.46400
C         -0.07200        9.53800        0.50800
H          0.17800        7.06100        0.92400
C          1.61900       11.41600       -0.15300
N          1.26400       12.66400       -0.82600
N          0.03500       12.50100       -1.44000
N         -0.53600       11.50100       -0.93700
C          1.61300       13.92000       -0.34300
H          2.28500       11.54300        0.70600
H          2.08300       10.73300       -0.87400
H         -0.10100       11.57700        1.10400
C          0.79800       14.98400       -0.29500
C          1.22500       16.30100        0.16800
H         -0.23700       14.90600       -0.60200
H          2.64200       13.97500        0.00700
O          0.19200       17.15900        0.11100
O          2.33000       16.62300        0.55600
H          0.56300       18.02100        0.39300
