
 OpenBabel11042013073D

 41 43  0  0  1  0  0  0  0  0999 V2000
    1.4490   -0.7020    0.0610 O   0  0  0  0  0  0  0  0  0  0  0  0
    0.2280   -0.1270    0.0290 C   0  0  0  0  0  0  0  0  0  0  0  0
   -0.7880   -0.8000    0.1160 O   0  0  0  0  0  0  0  0  0  0  0  0
    0.2100    1.3630   -0.1160 C   0  0  1  0  0  0  0  0  0  0  0  0
    2.2190   -0.1210   -0.0280 H   0  0  0  0  0  0  0  0  0  0  0  0
   -1.0050    1.9460   -0.1630 C   0  0  0  0  0  0  0  0  0  0  0  0
   -1.1310    3.2810   -0.2420 C   0  0  2  0  0  0  0  0  0  0  0  0
   -0.0470    4.1050   -0.2710 C   0  0  2  0  0  0  0  0  0  0  0  0
    1.1700    3.4870   -0.2430 C   0  0  0  0  0  0  0  0  0  0  0  0
    1.3010    2.1550   -0.1700 C   0  0  0  0  0  0  0  0  0  0  0  0
   -0.1230    5.5940   -0.1560 C   0  0  1  0  0  0  0  0  0  0  0  0
   -2.3920    3.7610   -0.2430 F   0  0  0  0  0  0  0  0  0  0  0  0
   -1.9170    1.3570   -0.1030 H   0  0  0  0  0  0  0  0  0  0  0  0
    2.3160    1.7770   -0.1190 H   0  0  0  0  0  0  0  0  0  0  0  0
    2.1070    4.0360   -0.2550 H   0  0  0  0  0  0  0  0  0  0  0  0
   -1.2970    6.2680   -0.0170 C   0  0  0  0  0  0  0  0  0  0  0  0
   -1.3340    7.5530    0.3880 C   0  0  0  0  0  0  0  0  0  0  0  0
   -0.1860    8.1930    0.6510 C   0  0  1  0  0  0  0  0  0  0  0  0
    0.9850    7.6130    0.3590 C   0  0  0  0  0  0  0  0  0  0  0  0
    1.0120    6.3390   -0.0500 C   0  0  0  0  0  0  0  0  0  0  0  0
   -0.1430    9.5140    1.1250 C   0  0  0  0  0  0  0  0  0  0  0  0
   -2.2940    8.0450    0.5280 H   0  0  0  0  0  0  0  0  0  0  0  0
   -2.2620    5.7980   -0.1650 H   0  0  0  0  0  0  0  0  0  0  0  0
    2.0070    5.9490   -0.2200 H   0  0  0  0  0  0  0  0  0  0  0  0
    1.9180    8.1580    0.4810 H   0  0  0  0  0  0  0  0  0  0  0  0
    0.0340   10.6900    1.0440 C   0  0  0  0  0  0  0  0  0  0  0  0
    0.1320   11.8220    0.1680 C   0  0  2  0  0  0  0  0  0  0  0  0
    0.7720   12.9780    0.6980 O   0  0  0  0  0  0  0  0  0  0  0  0
   -1.1720   13.7440   -0.2910 C   0  0  0  0  0  0  0  0  0  0  0  0
   -1.2590   12.2420   -0.2770 C   0  0  0  0  0  0  0  0  0  0  0  0
    0.6920   15.4280    0.1760 C   0  0  0  0  0  0  0  0  0  0  0  0
   -2.0510   11.9090    0.4070 H   0  0  0  0  0  0  0  0  0  0  0  0
   -1.6870   14.1370    0.5940 H   0  0  0  0  0  0  0  0  0  0  0  0
   -1.6320   14.1770   -1.1810 H   0  0  0  0  0  0  0  0  0  0  0  0
   -1.4850   11.8100   -1.2580 H   0  0  0  0  0  0  0  0  0  0  0  0
    0.7930   13.8210   -1.1740 H   0  0  0  0  0  0  0  0  0  0  0  0
    0.3240   14.0050   -0.1960 C   0  0  1  0  0  0  0  0  0  0  0  0
    0.7220   11.5090   -0.7050 H   0  0  0  0  0  0  0  0  0  0  0  0
   -0.2930   16.3070   -0.0830 O   0  0  0  0  0  0  0  0  0  0  0  0
    1.7780   15.8210    0.5730 O   0  0  0  0  0  0  0  0  0  0  0  0
    0.0930   17.1720    0.1950 H   0  0  0  0  0  0  0  0  0  0  0  0
  1  5  1  0  0  0  0
  2  1  1  0  0  0  0
  3  2  2  0  0  0  0
  4  2  1  1  0  0  0
  4 10  5  0  0  0  0
  6  4  5  0  0  0  0
  6  7  5  0  0  0  0
  6 13  1  0  0  0  0
  7 12  1  1  0  0  0
  8  7  5  0  0  0  0
  8  9  5  1  0  0  0
  8 11  1  0  0  0  0
  9 15  1  0  0  0  0
 10  9  5  0  0  0  0
 10 14  1  0  0  0  0
 11 16  5  1  0  0  0
 11 20  5  0  0  0  0
 16 17  5  0  0  0  0
 16 23  1  0  0  0  0
 17 22  1  0  0  0  0
 18 17  5  0  0  0  0
 18 21  1  6  0  0  0
 19 18  5  0  0  0  0
 19 25  1  0  0  0  0
 20 19  5  0  0  0  0
 20 24  1  0  0  0  0
 26 21  3  0  0  0  0
 27 26  1  0  0  0  0
 27 30  1  0  0  0  0
 27 38  1  6  0  0  0
 28 27  1  0  0  0  0
 29 37  1  0  0  0  0
 29 34  1  0  0  0  0
 30 29  1  0  0  0  0
 30 35  1  0  0  0  0
 31 37  1  0  0  0  0
 31 40  2  0  0  0  0
 32 30  1  0  0  0  0
 33 29  1  0  0  0  0
 37 28  1  0  0  0  0
 37 36  1  6  0  0  0
 39 31  1  0  0  0  0
 41 39  1  0  0  0  0
M  END
