41

O          1.44900       -0.70200        0.06100
C          0.22800       -0.12700        0.02900
O         -0.78800       -0.80000        0.11600
C          0.21000        1.36300       -0.11600
H          2.21900       -0.12100       -0.02800
C         -1.00500        1.94600       -0.16300
C         -1.13100        3.28100       -0.24200
C         -0.04700        4.10500       -0.27100
C          1.17000        3.48700       -0.24300
C          1.30100        2.15500       -0.17000
C         -0.12300        5.59400       -0.15600
F         -2.39200        3.76100       -0.24300
H         -1.91700        1.35700       -0.10300
H          2.31600        1.77700       -0.11900
H          2.10700        4.03600       -0.25500
C         -1.29700        6.26800       -0.01700
C         -1.33400        7.55300        0.38800
C         -0.18600        8.19300        0.65100
C          0.98500        7.61300        0.35900
C          1.01200        6.33900       -0.05000
C         -0.14300        9.51400        1.12500
H         -2.29400        8.04500        0.52800
H         -2.26200        5.79800       -0.16500
H          2.00700        5.94900       -0.22000
H          1.91800        8.15800        0.48100
C          0.03400       10.69000        1.04400
C          0.13200       11.82200        0.16800
O          0.77200       12.97800        0.69800
C         -1.17200       13.74400       -0.29100
C         -1.25900       12.24200       -0.27700
C          0.69200       15.42800        0.17600
H         -2.05100       11.90900        0.40700
H         -1.68700       14.13700        0.59400
H         -1.63200       14.17700       -1.18100
H         -1.48500       11.81000       -1.25800
H          0.79300       13.82100       -1.17400
C          0.32400       14.00500       -0.19600
H          0.72200       11.50900       -0.70500
O         -0.29300       16.30700       -0.08300
O          1.77800       15.82100        0.57300
H          0.09300       17.17200        0.19500
