24

O          0.79400        0.43300       -0.08900
C         -0.45500        0.95400       -0.08500
O         -1.42700        0.21900        0.00100
C         -0.53900        2.43900       -0.16600
H          1.52800        1.07100       -0.19400
C         -1.73900        3.03700       -0.01500
C         -1.85500        4.37700       -0.07100
C         -0.76700        5.14900       -0.27500
C          0.45000        4.56500       -0.42700
C          0.53800        3.21900       -0.38100
C         -0.89800        6.56800       -0.30300
H         -2.84000        4.81800        0.05900
F         -2.86200        2.32300        0.20400
F          1.76000        2.65700       -0.54100
C          2.06700        6.06300        0.43100
H          1.97200        7.12300        0.18300
H          1.53100        5.84900        1.36300
H          3.12800        5.84900        0.58500
O          1.61300        5.28400       -0.67800
C         -0.82100        7.76900       -0.25900
C         -0.51500        9.16600       -0.14200
O         -1.58500        9.97900       -0.13200
O          0.62400        9.58500       -0.02700
H         -1.18500       10.86700       -0.02300
