
 OpenBabel11042013073D

 35 36  0  0  1  0  0  0  0  0999 V2000
    0.9440    0.7260    0.1370 O   0  0  0  0  0  0  0  0  0  0  0  0
   -0.1620    1.4390   -0.1710 C   0  0  0  0  0  0  0  0  0  0  0  0
   -1.2070    0.8750   -0.4520 O   0  0  0  0  0  0  0  0  0  0  0  0
   -0.0060    2.9340   -0.1490 C   0  0  2  0  0  0  0  0  0  0  0  0
    1.7160    1.1890    0.5040 H   0  0  0  0  0  0  0  0  0  0  0  0
   -1.0750    3.7520    0.0270 C   0  0  2  0  0  0  0  0  0  0  0  0
   -0.8850    5.0980    0.0400 C   0  0  0  0  0  0  0  0  0  0  0  0
    0.3350    5.6690   -0.1250 C   0  0  2  0  0  0  0  0  0  0  0  0
    1.3900    4.8320   -0.3110 C   0  0  2  0  0  0  0  0  0  0  0  0
    1.2130    3.4910   -0.3350 C   0  0  0  0  0  0  0  0  0  0  0  0
    0.5330    7.1330    0.0120 C   0  0  0  0  0  0  0  0  0  0  0  0
   -1.7590    5.7290    0.2090 H   0  0  0  0  0  0  0  0  0  0  0  0
   -2.4120    3.2680    0.2270 C   0  0  0  0  0  0  0  0  0  0  0  0
    2.0870    2.8690   -0.5160 H   0  0  0  0  0  0  0  0  0  0  0  0
    2.7240    5.3190   -0.4850 C   0  0  0  0  0  0  0  0  0  0  0  0
   -3.5180    2.9640    0.4130 N   0  0  0  0  0  0  0  0  0  0  0  0
   -0.3760    8.1170   -0.1270 C   0  0  0  0  0  0  0  0  0  0  0  0
   -0.1590    9.5420    0.3240 C   0  0  1  0  0  0  0  0  0  0  0  0
   -1.3940    7.8780   -0.4250 H   0  0  0  0  0  0  0  0  0  0  0  0
    1.5240    7.4380    0.3510 H   0  0  0  0  0  0  0  0  0  0  0  0
    3.8220    5.6840   -0.6060 N   0  0  0  0  0  0  0  0  0  0  0  0
    1.0990   10.3270   -0.0480 C   0  0  0  0  0  0  0  0  0  0  0  0
    0.7190   11.7250    0.4420 C   0  0  2  0  0  0  0  0  0  0  0  0
   -0.7640   11.7760    0.3110 N   0  0  0  0  0  0  0  0  0  0  0  0
   -1.1790   10.4690   -0.1820 N   0  0  0  0  0  0  0  0  0  0  0  0
    1.3790   12.9070   -0.2620 C   0  0  0  0  0  0  0  0  0  0  0  0
   -2.0960   10.2190    0.1960 H   0  0  0  0  0  0  0  0  0  0  0  0
   -1.0090   12.5370   -0.3390 H   0  0  0  0  0  0  0  0  0  0  0  0
    1.9930    9.9540    0.4630 H   0  0  0  0  0  0  0  0  0  0  0  0
    0.9600   11.8250    1.5070 H   0  0  0  0  0  0  0  0  0  0  0  0
    1.2930   10.3150   -1.1290 H   0  0  0  0  0  0  0  0  0  0  0  0
   -0.2440    9.5160    1.4210 H   0  0  0  0  0  0  0  0  0  0  0  0
    0.5470   13.9690   -0.4080 O   0  0  0  0  0  0  0  0  0  0  0  0
    2.5520   13.0010   -0.5850 O   0  0  0  0  0  0  0  0  0  0  0  0
    1.1170   14.6960   -0.7350 H   0  0  0  0  0  0  0  0  0  0  0  0
  1  5  1  0  0  0  0
  2  1  1  0  0  0  0
  3  2  2  0  0  0  0
  4  2  1  6  0  0  0
  4 10  5  0  0  0  0
  6  4  5  0  0  0  0
  6  7  5  0  0  0  0
  6 13  1  1  0  0  0
  7 12  1  0  0  0  0
  8  7  5  0  0  0  0
  8 11  1  1  0  0  0
  9  8  5  0  0  0  0
  9 15  1  1  0  0  0
 10  9  5  0  0  0  0
 10 14  1  0  0  0  0
 11 20  1  0  0  0  0
 13 16  3  0  0  0  0
 15 21  3  0  0  0  0
 17 11  2  0  0  0  0
 17 19  1  0  0  0  0
 18 17  1  0  0  0  0
 18 25  1  0  0  0  0
 18 32  1  1  0  0  0
 22 18  1  0  0  0  0
 22 29  1  0  0  0  0
 22 31  1  0  0  0  0
 23 22  1  0  0  0  0
 23 30  1  1  0  0  0
 24 23  1  0  0  0  0
 25 24  1  0  0  0  0
 26 23  1  0  0  0  0
 26 34  2  0  0  0  0
 27 25  1  0  0  0  0
 28 24  1  0  0  0  0
 33 26  1  0  0  0  0
 35 33  1  0  0  0  0
M  END
