34

O          1.42100       -0.25300       -0.05500
C          0.31400        0.44700       -0.37000
O         -0.70000       -0.17000       -0.68600
C          0.34800        1.95600       -0.26600
H          2.26600        0.17000        0.17900
C         -0.84000        2.58200       -0.04900
C         -0.89600        3.92000        0.06900
C          0.20600        4.70400        0.00300
C          1.38000        4.08600       -0.25200
C          1.45900        2.73900       -0.39300
C          0.08200        6.18600        0.31900
H         -1.86000        4.37000        0.27000
N         -2.08300        1.90800        0.12100
C          2.75100        2.18700       -0.62900
H          2.28300        4.69600       -0.31100
N          3.76700        1.63400       -0.72400
O          0.97200        7.08800       -0.37300
C         -0.98300        8.30500        0.14300
C         -1.28200        6.82700        0.09200
N          0.91200        9.64200       -0.53600
H         -2.02100        6.53800        0.84500
H         -1.39600        8.78600        1.03500
H         -1.42900        8.80400       -0.72700
H         -1.67800        6.57200       -0.90000
H          0.91900        8.41700        1.17100
C          0.54600        8.38500        0.13700
H          0.33300        6.26300        1.38800
H         -2.11900        0.93600       -0.20200
H         -2.94300        2.41000       -0.07500
N          0.94100       10.56800        0.31400
C          0.65800       11.79000       -0.22400
O         -0.65100       12.09600       -0.07800
O          1.43300       12.61000       -0.69700
H         -0.70500       13.00900       -0.42000
