30

O          1.37600        0.34400        0.35600
C          0.25900        1.04000        0.05300
O         -0.75400        0.43100       -0.25800
C          0.36800        2.55000        0.10100
H          2.18600        0.87400        0.46600
C         -0.79800        3.23700        0.22400
C         -0.79900        4.58400        0.14600
C          0.33000        5.30500       -0.04700
C          1.48700        4.61200       -0.08500
C          1.52000        3.26000       -0.02200
C          0.26300        6.80300       -0.33700
H         -1.75700        5.09100        0.19800
O         -2.01300        2.59700        0.38800
Cl         3.09500        2.52500       -0.17900
F          2.64700        5.28700       -0.26400
H         -2.79000        3.17300        0.30900
C          1.37600        7.78500        0.03400
C          0.75200        9.10400       -0.41700
N         -0.71200        8.90400       -0.24000
N         -0.88700        7.53800        0.22600
C          1.22100       10.37600        0.27500
H         -1.76000        7.16400       -0.14700
H         -1.06300        9.60100        0.43000
H          2.30900        7.59600       -0.50800
H          0.93700        9.24900       -1.48900
H          1.59600        7.77900        1.10900
H          0.16300        6.83600       -1.43400
O          0.23200       11.29500        0.40900
O          2.36400       10.65500        0.59700
H          0.68000       12.11100        0.71600
