
 OpenBabel11042013073D

 31 31  0  0  1  0  0  0  0  0999 V2000
    1.1600    0.4420    0.2700 O   0  0  0  0  0  0  0  0  0  0  0  0
    0.1730    1.1460   -0.3150 C   0  0  0  0  0  0  0  0  0  0  0  0
   -0.7670    0.5910   -0.8660 O   0  0  0  0  0  0  0  0  0  0  0  0
    0.2640    2.6420   -0.1930 C   0  0  2  0  0  0  0  0  0  0  0  0
    1.9670    0.9550    0.4680 H   0  0  0  0  0  0  0  0  0  0  0  0
   -0.9040    3.2770    0.0850 C   0  0  2  0  0  0  0  0  0  0  0  0
   -1.0110    4.6280   -0.0840 C   0  0  1  0  0  0  0  0  0  0  0  0
    0.1470    5.3290   -0.2860 C   0  0  1  0  0  0  0  0  0  0  0  0
    1.3640    4.7190   -0.3180 C   0  0  2  0  0  0  0  0  0  0  0  0
    1.3970    3.3530   -0.4070 C   0  0  2  0  0  0  0  0  0  0  0  0
    0.0940    6.8110   -0.5220 C   0  0  0  0  0  0  0  0  0  0  0  0
   -2.3920    5.3220   -0.0710 C   0  0  0  0  0  0  0  0  0  0  0  0
   -2.0100    2.5320    0.6320 C   0  0  0  0  0  0  0  0  0  0  0  0
    3.0230    2.4600   -0.8760 Br  0  0  0  0  0  0  0  0  0  0  0  0
    2.6950    5.5050   -0.2380 C   0  0  0  0  0  0  0  0  0  0  0  0
    2.7830    6.6650    0.7670 C   0  0  0  0  0  0  0  0  0  0  0  0
    3.4810    6.4170    1.5760 H   0  0  0  0  0  0  0  0  0  0  0  0
    1.8400    6.9210    1.2520 H   0  0  0  0  0  0  0  0  0  0  0  0
    3.1770    7.5580    0.2700 H   0  0  0  0  0  0  0  0  0  0  0  0
    3.4850    4.8370    0.1240 H   0  0  0  0  0  0  0  0  0  0  0  0
    3.0070    5.8260   -1.2380 H   0  0  0  0  0  0  0  0  0  0  0  0
   -2.8670    1.9860    1.1930 N   0  0  0  0  0  0  0  0  0  0  0  0
   -3.6250    4.5890   -0.6240 C   0  0  0  0  0  0  0  0  0  0  0  0
   -4.3350    4.3820    0.1860 H   0  0  0  0  0  0  0  0  0  0  0  0
   -4.1520    5.2230   -1.3470 H   0  0  0  0  0  0  0  0  0  0  0  0
   -3.3960    3.6570   -1.1460 H   0  0  0  0  0  0  0  0  0  0  0  0
   -2.6010    5.6620    0.9520 H   0  0  0  0  0  0  0  0  0  0  0  0
   -2.3490    6.2190   -0.6990 H   0  0  0  0  0  0  0  0  0  0  0  0
   -0.7250    7.4790    0.3120 O   0  0  0  0  0  0  0  0  0  0  0  0
    0.7490    7.4210   -1.3510 O   0  0  0  0  0  0  0  0  0  0  0  0
   -0.7100    8.4040   -0.0190 H   0  0  0  0  0  0  0  0  0  0  0  0
  1  5  1  0  0  0  0
  2  1  1  0  0  0  0
  3  2  2  0  0  0  0
  4  2  1  6  0  0  0
  4 10  5  0  0  0  0
  6  4  5  0  0  0  0
  6  7  5  0  0  0  0
  6 13  1  1  0  0  0
  7 12  1  6  0  0  0
  8  7  5  0  0  0  0
  8 11  1  6  0  0  0
  9  8  5  0  0  0  0
  9 15  1  1  0  0  0
 10  9  5  0  0  0  0
 10 14  1  6  0  0  0
 11 30  2  0  0  0  0
 12 27  1  0  0  0  0
 12 28  1  0  0  0  0
 13 22  3  0  0  0  0
 15 20  1  0  0  0  0
 15 21  1  0  0  0  0
 16 17  1  0  0  0  0
 16 18  1  0  0  0  0
 16 19  1  0  0  0  0
 16 15  1  0  0  0  0
 23 24  1  0  0  0  0
 23 25  1  0  0  0  0
 23 26  1  0  0  0  0
 23 12  1  0  0  0  0
 29 11  1  0  0  0  0
 31 29  1  0  0  0  0
M  END
