21

O          1.31200        0.34400        0.19000
C          0.18000        1.04600        0.02900
O         -0.87600        0.42700       -0.07100
C          0.19800        2.56200        0.03200
H          2.22200        0.69900        0.20000
C         -1.01500        3.16400        0.23400
C         -1.11700        4.52100        0.31600
C         -0.02000        5.29500        0.11400
C          1.18100        4.70800       -0.13600
C          1.28600        3.34500       -0.15200
C         -0.05500        6.78800        0.19200
Br        -2.82700        5.24500        0.77000
O         -2.19500        2.43100        0.36200
C          2.56600        2.75600       -0.36400
C          2.35900        5.48900       -0.40400
N          3.34100        6.04500       -0.67000
H         -2.10400        1.48200        0.12600
N          3.53200        2.11900       -0.44600
O         -1.13300        7.35300       -0.36800
O          0.82100        7.48600        0.67100
H         -1.04700        8.31100       -0.16800
