39

O          1.60900        0.53000        0.06600
C          0.46000        1.18300       -0.21600
O         -0.58500        0.59100       -0.43700
C          0.58000        2.67200       -0.18900
H          2.32500        1.09700        0.40300
C         -0.51800        3.36200        0.18100
C         -0.52500        4.71500        0.22900
C          0.61800        5.40500       -0.07700
C          1.71100        4.69000       -0.44700
C          1.69500        3.34400       -0.52200
C          0.80100        6.86400        0.06000
C         -2.81900        5.04700       -0.18100
H         -1.41300        2.81100        0.46200
H          2.59000        2.82800       -0.85400
H          2.63800        5.20300       -0.70300
C         -0.13300        7.82700       -0.02900
C          0.03400        9.26500        0.37300
H         -1.15400        7.54200       -0.26700
H          1.81300        7.16800        0.32800
H         -3.18500        4.03700        0.03300
H         -3.62400        5.74600        0.06300
H         -2.58800        5.15100       -1.24700
O         -1.68300        5.37700        0.62700
C          1.26300       10.08700       -0.00900
C          0.79300       11.47300        0.42900
N         -0.65700       11.47700        0.14500
N         -1.02800       10.11100       -0.19300
N          1.54200       12.58900       -0.18000
H         -1.92200        9.86400        0.23800
H         -0.79500       12.10300       -0.65500
H          2.16500        9.77400        0.52700
H          0.92300       11.55000        1.51800
H          1.47100       10.04600       -1.08700
H         -0.07400        9.28100        1.46900
N          0.91500       13.66500       -0.00700
C          1.64300       14.80300       -0.22000
O          0.83300       15.88500       -0.24900
O          2.85400       14.94900       -0.30400
H          1.46100       16.63200       -0.31300
