40

O          1.62700       -0.28700        0.46400
C          0.44800        0.32200        0.19200
O         -0.57200       -0.33600        0.05900
C          0.53400        1.81500        0.06300
H          2.35400        0.30300        0.72000
C         -0.57700        2.55000        0.30700
C         -0.48800        3.89100        0.21100
C          0.62400        4.56500       -0.17900
C          1.71000        3.79700       -0.43400
C          1.67000        2.45200       -0.30700
C          0.59300        6.06100       -0.28600
H         -1.38900        4.41900        0.48600
C         -2.91400        2.44400       -0.08900
H          2.58200        1.90300       -0.53300
H          2.65400        4.24700       -0.74200
C         -0.59100        6.71900       -0.20500
C         -0.73000        8.05900       -0.16600
C          0.38700        8.82000       -0.31900
C          1.57700        8.19400       -0.47200
C          1.68600        6.84900       -0.43500
N          0.33100       10.19600       -0.36400
C         -2.10600        8.68300        0.08400
H         -1.50800        6.15700       -0.14600
H          2.68200        6.42700       -0.52500
H          2.47400        8.79600       -0.60300
N          0.07700       10.75000        0.73300
C         -0.18500       12.08100        0.53000
H         -3.31100        3.35600        0.37100
H         -2.66500        2.63100       -1.14100
H         -3.69900        1.68500       -0.05500
O         -1.78800        1.95900        0.65300
C         -3.31700        7.74300        0.13300
H         -3.43200        7.18800       -0.80400
H         -4.23500        8.31400        0.29900
H         -3.23200        7.02400        0.95700
H         -2.06900        9.17800        1.06400
H         -2.30800        9.45100       -0.67100
O         -1.50600       12.32500        0.40200
O          0.61600       13.00300        0.48000
H         -1.52300       13.29300        0.25500
