
 OpenBabel11042013073D

 40 41  0  0  1  0  0  0  0  0999 V2000
    1.6270   -0.2870    0.4640 O   0  0  0  0  0  0  0  0  0  0  0  0
    0.4480    0.3220    0.1920 C   0  0  0  0  0  0  0  0  0  0  0  0
   -0.5720   -0.3360    0.0590 O   0  0  0  0  0  0  0  0  0  0  0  0
    0.5340    1.8150    0.0630 C   0  0  2  0  0  0  0  0  0  0  0  0
    2.3540    0.3030    0.7200 H   0  0  0  0  0  0  0  0  0  0  0  0
   -0.5770    2.5500    0.3070 C   0  0  2  0  0  0  0  0  0  0  0  0
   -0.4880    3.8910    0.2110 C   0  0  0  0  0  0  0  0  0  0  0  0
    0.6240    4.5650   -0.1790 C   0  0  2  0  0  0  0  0  0  0  0  0
    1.7100    3.7970   -0.4340 C   0  0  0  0  0  0  0  0  0  0  0  0
    1.6700    2.4520   -0.3070 C   0  0  0  0  0  0  0  0  0  0  0  0
    0.5930    6.0610   -0.2860 C   0  0  1  0  0  0  0  0  0  0  0  0
   -1.3890    4.4190    0.4860 H   0  0  0  0  0  0  0  0  0  0  0  0
   -2.9140    2.4440   -0.0890 C   0  0  0  0  0  0  0  0  0  0  0  0
    2.5820    1.9030   -0.5330 H   0  0  0  0  0  0  0  0  0  0  0  0
    2.6540    4.2470   -0.7420 H   0  0  0  0  0  0  0  0  0  0  0  0
   -0.5910    6.7190   -0.2050 C   0  0  0  0  0  0  0  0  0  0  0  0
   -0.7300    8.0590   -0.1660 C   0  0  2  0  0  0  0  0  0  0  0  0
    0.3870    8.8200   -0.3190 C   0  0  1  0  0  0  0  0  0  0  0  0
    1.5770    8.1940   -0.4720 C   0  0  0  0  0  0  0  0  0  0  0  0
    1.6860    6.8490   -0.4350 C   0  0  0  0  0  0  0  0  0  0  0  0
    0.3310   10.1960   -0.3640 N   0  0  0  0  0  0  0  0  0  0  0  0
   -2.1060    8.6830    0.0840 C   0  0  0  0  0  0  0  0  0  0  0  0
   -1.5080    6.1570   -0.1460 H   0  0  0  0  0  0  0  0  0  0  0  0
    2.6820    6.4270   -0.5250 H   0  0  0  0  0  0  0  0  0  0  0  0
    2.4740    8.7960   -0.6030 H   0  0  0  0  0  0  0  0  0  0  0  0
    0.0770   10.7500    0.7330 N   0  0  0  0  0  0  0  0  0  0  0  0
   -0.1850   12.0810    0.5300 C   0  0  0  0  0  0  0  0  0  0  0  0
   -3.3110    3.3560    0.3710 H   0  0  0  0  0  0  0  0  0  0  0  0
   -2.6650    2.6310   -1.1410 H   0  0  0  0  0  0  0  0  0  0  0  0
   -3.6990    1.6850   -0.0550 H   0  0  0  0  0  0  0  0  0  0  0  0
   -1.7880    1.9590    0.6530 O   0  0  0  0  0  0  0  0  0  0  0  0
   -3.3170    7.7430    0.1330 C   0  0  0  0  0  0  0  0  0  0  0  0
   -3.4320    7.1880   -0.8040 H   0  0  0  0  0  0  0  0  0  0  0  0
   -4.2350    8.3140    0.2990 H   0  0  0  0  0  0  0  0  0  0  0  0
   -3.2320    7.0240    0.9570 H   0  0  0  0  0  0  0  0  0  0  0  0
   -2.0690    9.1780    1.0640 H   0  0  0  0  0  0  0  0  0  0  0  0
   -2.3080    9.4510   -0.6710 H   0  0  0  0  0  0  0  0  0  0  0  0
   -1.5060   12.3250    0.4020 O   0  0  0  0  0  0  0  0  0  0  0  0
    0.6160   13.0030    0.4800 O   0  0  0  0  0  0  0  0  0  0  0  0
   -1.5230   13.2930    0.2550 H   0  0  0  0  0  0  0  0  0  0  0  0
  1  5  1  0  0  0  0
  2  1  1  0  0  0  0
  3  2  2  0  0  0  0
  4  2  1  6  0  0  0
  4 10  5  0  0  0  0
  6  4  5  0  0  0  0
  6  7  5  0  0  0  0
  6 31  1  1  0  0  0
  7 12  1  0  0  0  0
  8  7  5  1  0  0  0
  8 11  1  0  0  0  0
  9  8  5  0  0  0  0
  9 15  1  0  0  0  0
 10  9  5  0  0  0  0
 10 14  1  0  0  0  0
 11 16  5  1  0  0  0
 11 20  5  0  0  0  0
 13 28  1  0  0  0  0
 13 29  1  0  0  0  0
 13 30  1  0  0  0  0
 13 31  1  0  0  0  0
 16 17  5  0  0  0  0
 16 23  1  0  0  0  0
 17 22  1  1  0  0  0
 18 17  5  0  0  0  0
 18 21  1  6  0  0  0
 19 18  5  0  0  0  0
 19 25  1  0  0  0  0
 20 19  5  0  0  0  0
 20 24  1  0  0  0  0
 22 36  1  0  0  0  0
 22 37  1  0  0  0  0
 26 21  2  0  0  0  0
 27 26  1  0  0  0  0
 27 39  2  0  0  0  0
 32 33  1  0  0  0  0
 32 34  1  0  0  0  0
 32 35  1  0  0  0  0
 32 22  1  0  0  0  0
 38 27  1  0  0  0  0
 40 38  1  0  0  0  0
M  END
