34

O          1.63100        0.50900        0.03100
C          0.43000        1.07600        0.25800
O         -0.53400        0.36900        0.52400
C          0.36800        2.58200        0.19900
H          2.36100        1.07500       -0.26500
C         -0.83300        3.20700        0.06800
C         -0.89600        4.57200        0.09900
C          0.22300        5.34900        0.26200
C          1.40000        4.68800        0.35100
C          1.47900        3.34500        0.32600
C          0.14600        6.90700        0.38400
N         -2.18200        5.23700       -0.03600
C         -2.05400        2.46600       -0.11700
H          2.46600        2.90600        0.43700
H          2.33400        5.24000        0.46300
N         -3.09500        1.98500       -0.28900
H         -2.36000        5.36100       -1.04000
H         -2.97500        4.64700        0.23800
C          1.40800        7.80700        0.37300
C          0.99100        9.09500       -0.34400
N         -0.42200        8.91400       -0.66800
N         -0.66200        7.50100       -0.70000
C          1.14500       10.41400        0.29200
H         -1.63900        7.29400       -0.44700
H         -0.60600        9.35200       -1.57500
H          2.20000        7.34000       -0.22500
H          1.56900        9.14800       -1.27500
H          1.79800        7.97100        1.38300
H         -0.35200        7.10200        1.34700
C          1.17600       11.61200        0.45400
C          1.19400       13.05300        0.36500
O         -0.02200       13.63100        0.29700
O          2.21900       13.70300        0.25000
H          0.17400       14.57700        0.13100
