40

O          1.34100        0.02600       -0.40300
C          0.21300        0.65100        0.01300
O         -0.75200       -0.00100        0.37300
C          0.27300        2.16100       -0.03500
H          1.99700        0.57200       -0.86700
C         -0.84200        2.93200       -0.20100
C         -0.67300        4.27900       -0.26800
C          0.52900        4.88700       -0.12600
C          1.61700        4.10400        0.07200
C          1.47700        2.76000        0.12000
C          0.61100        6.35600       -0.17200
H         -1.54100        4.91300       -0.43000
C         -2.25600        2.34200       -0.25100
H          2.37000        2.17000        0.31900
C          2.92700        4.65600        0.25100
N          4.00300        5.05300        0.38500
C         -3.42100        3.28000        0.07900
H         -3.23100        3.84200        1.00100
H         -3.61300        3.98700       -0.73400
H         -4.33700        2.69800        0.23400
H         -2.34400        1.55400        0.50200
H         -2.42900        1.89000       -1.23500
C         -0.19100        7.15500        0.55500
C         -0.22700        8.65400        0.61500
H         -0.92900        6.68800        1.21000
H          1.37400        6.80000       -0.81000
O          0.80800        9.30200       -0.13000
C         -1.17300       10.63200       -0.21700
C         -1.51800        9.18800        0.02300
C          1.02300       11.79600        0.10600
H         -2.38000        9.05600        0.68200
H         -1.37700       11.21500        0.69000
H         -1.76000       11.07800       -1.02700
H         -1.74100        8.70600       -0.93800
H          0.49100       10.66600       -1.62000
C          0.31800       10.59600       -0.54100
H         -0.12100        8.96800        1.66100
O          0.41400       12.97000       -0.19300
O          2.01900       11.79200        0.80700
H          0.94400       13.64400        0.28400
