
 OpenBabel11042013073D

 28 29  0  0  1  0  0  0  0  0999 V2000
    1.7720   -0.0640   -0.0000 O   0  0  0  0  0  0  0  0  0  0  0  0
    0.5000    0.3910    0.0000 C   0  0  0  0  0  0  0  0  0  0  0  0
   -0.4380   -0.3900   -0.0000 O   0  0  0  0  0  0  0  0  0  0  0  0
    0.3570    1.8690    0.0000 C   0  0  1  0  0  0  0  0  0  0  0  0
    2.4670    0.6210    0.0000 H   0  0  0  0  0  0  0  0  0  0  0  0
   -0.8790    2.3860    0.0000 C   0  0  1  0  0  0  0  0  0  0  0  0
   -1.1160    3.7220    0.0000 C   0  0  1  0  0  0  0  0  0  0  0  0
   -0.0590    4.6150   -0.0000 C   0  0  1  0  0  0  0  0  0  0  0  0
    1.1830    4.0400    0.0000 C   0  0  0  0  0  0  0  0  0  0  0  0
    1.3890    2.7210    0.0000 C   0  0  2  0  0  0  0  0  0  0  0  0
   -0.1110    6.1270    0.0000 C   0  0  1  0  0  0  0  0  0  0  0  0
   -2.9890    4.0920    0.0000 Br  0  0  0  0  0  0  0  0  0  0  0  0
   -1.9410    1.5440    0.0000 F   0  0  0  0  0  0  0  0  0  0  0  0
    2.6640    2.2730    0.0000 F   0  0  0  0  0  0  0  0  0  0  0  0
    2.1020    4.6130    0.0000 H   0  0  0  0  0  0  0  0  0  0  0  0
   -1.2740    6.8190    0.0000 C   0  0  0  0  0  0  0  0  0  0  0  0
   -1.3460    8.1570    0.0000 C   0  0  0  0  0  0  0  0  0  0  0  0
   -0.2250    8.8890    0.0000 C   0  0  1  0  0  0  0  0  0  0  0  0
    0.9640    8.2610    0.0000 C   0  0  0  0  0  0  0  0  0  0  0  0
    1.0110    6.9120   -0.0000 C   0  0  0  0  0  0  0  0  0  0  0  0
   -0.2960   10.3660   -0.0000 C   0  0  0  0  0  0  0  0  0  0  0  0
   -2.3310    8.6150    0.0000 H   0  0  0  0  0  0  0  0  0  0  0  0
   -2.2420    6.3670    0.0000 H   0  0  0  0  0  0  0  0  0  0  0  0
    2.0180    6.5120    0.0000 H   0  0  0  0  0  0  0  0  0  0  0  0
    1.8920    8.8280   -0.0000 H   0  0  0  0  0  0  0  0  0  0  0  0
   -1.5630   10.8210   -0.0000 O   0  0  0  0  0  0  0  0  0  0  0  0
    0.6510   11.1330   -0.0000 O   0  0  0  0  0  0  0  0  0  0  0  0
   -1.4730   11.7950    0.0000 H   0  0  0  0  0  0  0  0  0  0  0  0
  1  5  1  0  0  0  0
  2  1  1  0  0  0  0
  3  2  2  0  0  0  0
  4  2  1  1  0  0  0
  4 10  5  0  0  0  0
  6  4  5  0  0  0  0
  6  7  5  0  0  0  0
  6 13  1  6  0  0  0
  7 12  1  6  0  0  0
  8  7  5  0  0  0  0
  8  9  5  6  0  0  0
  8 11  1  0  0  0  0
  9 15  1  0  0  0  0
 10  9  5  0  0  0  0
 10 14  1  6  0  0  0
 11 16  5  1  0  0  0
 11 20  5  0  0  0  0
 16 17  5  0  0  0  0
 16 23  1  0  0  0  0
 17 22  1  0  0  0  0
 18 17  5  0  0  0  0
 18 21  1  6  0  0  0
 19 18  5  0  0  0  0
 19 25  1  0  0  0  0
 20 19  5  0  0  0  0
 20 24  1  0  0  0  0
 21 27  2  0  0  0  0
 26 21  1  0  0  0  0
 28 26  1  0  0  0  0
M  END
