28

O          1.77200       -0.06400       -0.00000
C          0.50000        0.39100        0.00000
O         -0.43800       -0.39000       -0.00000
C          0.35700        1.86900        0.00000
H          2.46700        0.62100        0.00000
C         -0.87900        2.38600        0.00000
C         -1.11600        3.72200        0.00000
C         -0.05900        4.61500       -0.00000
C          1.18300        4.04000        0.00000
C          1.38900        2.72100        0.00000
C         -0.11100        6.12700        0.00000
Br        -2.98900        4.09200        0.00000
F         -1.94100        1.54400        0.00000
F          2.66400        2.27300        0.00000
H          2.10200        4.61300        0.00000
C         -1.27400        6.81900        0.00000
C         -1.34600        8.15700        0.00000
C         -0.22500        8.88900        0.00000
C          0.96400        8.26100        0.00000
C          1.01100        6.91200       -0.00000
C         -0.29600       10.36600       -0.00000
H         -2.33100        8.61500        0.00000
H         -2.24200        6.36700        0.00000
H          2.01800        6.51200        0.00000
H          1.89200        8.82800       -0.00000
O         -1.56300       10.82100       -0.00000
O          0.65100       11.13300       -0.00000
H         -1.47300       11.79500        0.00000
