
 OpenBabel11042013033D

 32 33  0  0  1  0  0  0  0  0999 V2000
    1.3350   -0.2140   -0.0360 O   0  0  0  0  0  0  0  0  0  0  0  0
    0.0760    0.2770    0.0060 C   0  0  0  0  0  0  0  0  0  0  0  0
   -0.8650   -0.4960    0.0340 O   0  0  0  0  0  0  0  0  0  0  0  0
   -0.0650    1.7630   -0.0010 C   0  0  1  0  0  0  0  0  0  0  0  0
    2.0530    0.4450   -0.0380 H   0  0  0  0  0  0  0  0  0  0  0  0
   -1.2520    2.4100   -0.0630 C   0  0  1  0  0  0  0  0  0  0  0  0
   -1.2900    3.7640   -0.0880 C   0  0  0  0  0  0  0  0  0  0  0  0
   -0.1610    4.5150   -0.0440 C   0  0  2  0  0  0  0  0  0  0  0  0
    1.0050    3.8380    0.0540 C   0  0  0  0  0  0  0  0  0  0  0  0
    1.0520    2.5090    0.0640 C   0  0  2  0  0  0  0  0  0  0  0  0
   -0.1550    5.9900   -0.0820 C   0  0  1  0  0  0  0  0  0  0  0  0
   -2.2650    4.2380   -0.1470 H   0  0  0  0  0  0  0  0  0  0  0  0
   -2.8030    1.6200   -0.1200 Cl  0  0  0  0  0  0  0  0  0  0  0  0
    2.2860    1.9620    0.1360 F   0  0  0  0  0  0  0  0  0  0  0  0
    1.9710    4.3200    0.1280 H   0  0  0  0  0  0  0  0  0  0  0  0
   -1.2860    6.7380   -0.0500 C   0  0  0  0  0  0  0  0  0  0  0  0
   -1.2290    8.0830   -0.0410 C   0  0  0  0  0  0  0  0  0  0  0  0
   -0.0470    8.7280   -0.0540 C   0  0  2  0  0  0  0  0  0  0  0  0
    1.0820    7.9960   -0.1170 C   0  0  0  0  0  0  0  0  0  0  0  0
    1.0210    6.6650   -0.1450 C   0  0  0  0  0  0  0  0  0  0  0  0
    0.1200   10.1570   -0.0030 C   0  0  0  0  0  0  0  0  0  0  0  0
   -2.1740    8.6240   -0.0100 H   0  0  0  0  0  0  0  0  0  0  0  0
   -2.2750    6.2980   -0.0220 H   0  0  0  0  0  0  0  0  0  0  0  0
    1.9890    6.1850   -0.2040 H   0  0  0  0  0  0  0  0  0  0  0  0
    2.0640    8.4650   -0.1410 H   0  0  0  0  0  0  0  0  0  0  0  0
   -0.8690   11.0540    0.0130 C   0  0  0  0  0  0  0  0  0  0  0  0
   -0.4750   12.4600    0.0320 C   0  0  0  0  0  0  0  0  0  0  0  0
   -1.9160   10.8120   -0.0030 H   0  0  0  0  0  0  0  0  0  0  0  0
    1.1520   10.5110    0.0290 H   0  0  0  0  0  0  0  0  0  0  0  0
   -1.5670   13.2310    0.0240 O   0  0  0  0  0  0  0  0  0  0  0  0
    0.6530   12.9150    0.0330 O   0  0  0  0  0  0  0  0  0  0  0  0
   -1.1920   14.1330    0.0090 H   0  0  0  0  0  0  0  0  0  0  0  0
  1  5  1  0  0  0  0
  2  1  1  0  0  0  0
  3  2  2  0  0  0  0
  4  2  1  1  0  0  0
  4 10  5  0  0  0  0
  6  4  5  0  0  0  0
  6  7  5  0  0  0  0
  6 13  1  6  0  0  0
  7 12  1  0  0  0  0
  8  7  5  1  0  0  0
  8 11  1  0  0  0  0
  9  8  5  0  0  0  0
  9 15  1  0  0  0  0
 10  9  5  0  0  0  0
 10 14  1  6  0  0  0
 11 16  5  1  0  0  0
 11 20  5  0  0  0  0
 16 17  5  0  0  0  0
 16 23  1  0  0  0  0
 17 22  1  0  0  0  0
 18 17  5  0  0  0  0
 18 21  1  1  0  0  0
 19 18  5  0  0  0  0
 19 25  1  0  0  0  0
 20 19  5  0  0  0  0
 20 24  1  0  0  0  0
 21 29  1  0  0  0  0
 26 21  2  0  0  0  0
 26 28  1  0  0  0  0
 27 26  1  0  0  0  0
 27 31  2  0  0  0  0
 30 27  1  0  0  0  0
 32 30  1  0  0  0  0
M  END
