
 OpenBabel11042013073D

 30 30  0  0  1  0  0  0  0  0999 V2000
    0.6030    0.3100    0.0030 O   0  0  0  0  0  0  0  0  0  0  0  0
   -0.5100    1.0750    0.0560 C   0  0  0  0  0  0  0  0  0  0  0  0
   -1.6240    0.5730    0.1300 O   0  0  0  0  0  0  0  0  0  0  0  0
   -0.2640    2.5610    0.0340 C   0  0  2  0  0  0  0  0  0  0  0  0
    1.4080    0.8760   -0.0830 H   0  0  0  0  0  0  0  0  0  0  0  0
   -1.3610    3.3500    0.0960 C   0  0  0  0  0  0  0  0  0  0  0  0
   -1.2530    4.6960    0.0910 C   0  0  0  0  0  0  0  0  0  0  0  0
   -0.0440    5.3010    0.0240 C   0  0  2  0  0  0  0  0  0  0  0  0
    1.0500    4.5010   -0.0420 C   0  0  0  0  0  0  0  0  0  0  0  0
    0.9500    3.1530   -0.0430 C   0  0  2  0  0  0  0  0  0  0  0  0
    0.1610    6.7580    0.0260 C   0  0  0  0  0  0  0  0  0  0  0  0
   -2.1730    5.2730    0.1440 H   0  0  0  0  0  0  0  0  0  0  0  0
   -2.3540    2.9030    0.1540 H   0  0  0  0  0  0  0  0  0  0  0  0
    2.1670    2.3730   -0.1300 N   0  0  0  0  0  0  0  0  0  0  0  0
    2.0350    4.9550   -0.0940 H   0  0  0  0  0  0  0  0  0  0  0  0
   -0.7520    7.7450    0.0280 C   0  0  0  0  0  0  0  0  0  0  0  0
   -0.3610    9.1240    0.0220 C   0  0  0  0  0  0  0  0  0  0  0  0
   -1.8180    7.5430    0.0280 H   0  0  0  0  0  0  0  0  0  0  0  0
    1.2080    7.0670    0.0240 H   0  0  0  0  0  0  0  0  0  0  0  0
    2.7610    2.7890   -0.8610 H   0  0  0  0  0  0  0  0  0  0  0  0
    2.7470    2.5960    0.6910 H   0  0  0  0  0  0  0  0  0  0  0  0
   -0.0280   10.2820    0.0140 C   0  0  0  0  0  0  0  0  0  0  0  0
    0.3950   11.6450    0.0010 C   0  0  0  0  0  0  0  0  0  0  0  0
   -0.4780   12.6630   -0.0030 C   0  0  0  0  0  0  0  0  0  0  0  0
    0.0050   14.0520   -0.0060 C   0  0  0  0  0  0  0  0  0  0  0  0
   -1.5500   12.5140   -0.0030 H   0  0  0  0  0  0  0  0  0  0  0  0
    1.4660   11.8390    0.0010 H   0  0  0  0  0  0  0  0  0  0  0  0
   -1.0350   14.9020   -0.0040 O   0  0  0  0  0  0  0  0  0  0  0  0
    1.1580   14.4360   -0.0080 O   0  0  0  0  0  0  0  0  0  0  0  0
   -0.6230   15.7920   -0.0030 H   0  0  0  0  0  0  0  0  0  0  0  0
  1  5  1  0  0  0  0
  2  1  1  0  0  0  0
  3  2  2  0  0  0  0
  4  2  1  6  0  0  0
  4 10  5  0  0  0  0
  6  4  5  0  0  0  0
  6  7  5  0  0  0  0
  6 13  1  0  0  0  0
  7 12  1  0  0  0  0
  8  7  5  0  0  0  0
  8 11  1  1  0  0  0
  9  8  5  0  0  0  0
  9 15  1  0  0  0  0
 10  9  5  0  0  0  0
 10 14  1  6  0  0  0
 11 19  1  0  0  0  0
 14 20  1  0  0  0  0
 14 21  1  0  0  0  0
 16 11  2  0  0  0  0
 16 18  1  0  0  0  0
 17 16  1  0  0  0  0
 22 17  3  0  0  0  0
 23 22  1  0  0  0  0
 23 27  1  0  0  0  0
 24 23  2  0  0  0  0
 24 26  1  0  0  0  0
 25 24  1  0  0  0  0
 25 29  2  0  0  0  0
 28 25  1  0  0  0  0
 30 28  1  0  0  0  0
M  END
