30

O          0.60300        0.31000        0.00300
C         -0.51000        1.07500        0.05600
O         -1.62400        0.57300        0.13000
C         -0.26400        2.56100        0.03400
H          1.40800        0.87600       -0.08300
C         -1.36100        3.35000        0.09600
C         -1.25300        4.69600        0.09100
C         -0.04400        5.30100        0.02400
C          1.05000        4.50100       -0.04200
C          0.95000        3.15300       -0.04300
C          0.16100        6.75800        0.02600
H         -2.17300        5.27300        0.14400
H         -2.35400        2.90300        0.15400
N          2.16700        2.37300       -0.13000
H          2.03500        4.95500       -0.09400
C         -0.75200        7.74500        0.02800
C         -0.36100        9.12400        0.02200
H         -1.81800        7.54300        0.02800
H          1.20800        7.06700        0.02400
H          2.76100        2.78900       -0.86100
H          2.74700        2.59600        0.69100
C         -0.02800       10.28200        0.01400
C          0.39500       11.64500        0.00100
C         -0.47800       12.66300       -0.00300
C          0.00500       14.05200       -0.00600
H         -1.55000       12.51400       -0.00300
H          1.46600       11.83900        0.00100
O         -1.03500       14.90200       -0.00400
O          1.15800       14.43600       -0.00800
H         -0.62300       15.79200       -0.00300
