26

O          1.03400        0.06300       -0.05200
C         -0.03300        0.87100        0.06700
O         -1.15300        0.38000        0.15400
C          0.16900        2.36500        0.07000
H          1.95400        0.37300       -0.14600
C         -0.97400        3.08800       -0.06700
C         -0.97900        4.44500       -0.07600
C          0.18900        5.12400        0.07600
C          1.31800        4.39100        0.21200
C          1.33000        3.04300        0.20600
N          0.41000        6.48200        0.11400
C         -2.24000        5.10200       -0.26100
H         -1.92900        2.56600       -0.17800
C          2.59100        2.40800        0.32900
H          2.26000        4.93100        0.32600
N         -3.28200        5.58300       -0.43700
N         -0.48900        7.30400       -0.12400
C         -0.03700        8.59800       -0.08100
N          3.56800        1.78200        0.35700
C         -0.85400        9.65600       -0.07500
C         -0.27600       10.99900       -0.02600
H         -1.93000        9.55500       -0.09900
H          1.04300        8.74700       -0.05000
O         -1.25300       11.91800       -0.01700
O          0.90400       11.29800        0.00500
H         -0.78600       12.77900        0.01300
