43

O          1.05500       -0.43700       -0.08700
C         -0.21500        0.02400       -0.09900
O         -1.18500       -0.71400       -0.03900
C         -0.30400        1.50300       -0.25800
H          1.72200        0.23800       -0.31600
C         -1.31000        1.96700       -1.02200
C         -1.46400        3.29200       -1.18200
C         -0.65200        4.18300       -0.55500
C          0.32800        3.70800        0.25900
C          0.50700        2.37100        0.38400
C         -1.02000        5.65600       -0.70500
H         -2.30600        3.64000       -1.77700
H         -2.01900        1.28400       -1.48900
H          1.26500        2.00700        1.07200
C          2.32900        4.86600        0.78200
O          0.04100        6.63800       -0.61400
C         -1.79300        7.38800        0.67400
C         -2.04300        5.95400        0.37600
C          0.05700        9.08000        0.09600
H         -3.06500        5.78100        0.01700
H         -2.42200        7.92700       -0.04100
H         -2.08000        7.67600        1.68900
H         -1.90500        5.35200        1.28000
H          0.26500        7.30400        1.30500
C         -0.29900        7.60100        0.41000
H         -1.45300        5.82200       -1.70100
C         -0.93800       10.00500        0.08900
C         -0.72400       11.31400       -0.08400
C          0.52500       11.76700       -0.25600
C          1.55300       10.88600       -0.26100
C          1.32100        9.56100       -0.09100
C          0.75900       13.22600       -0.38900
H         -1.57800       11.98600       -0.05900
H         -1.97900        9.75900        0.25800
Cl         2.70400        8.51100       -0.08800
H          2.56800       11.25600       -0.40200
H          2.42700        5.17600       -0.26200
H          2.64200        5.70000        1.42100
H          2.98000        4.01600        1.00100
O          0.98200        4.56900        1.12400
O         -0.36900       13.95000       -0.30200
O          1.83800       13.76900       -0.53900
H         -0.08600       14.88700       -0.37100
