39

O          1.47700        0.68500       -0.12000
C          0.33800        1.23300        0.36900
O         -0.56100        0.52000        0.78500
C          0.28500        2.74000        0.29100
H          2.06900        1.29000       -0.60100
C         -0.88000        3.41000        0.08400
C         -0.80700        4.76000       -0.05000
C          0.35100        5.49300        0.02600
C          1.48000        4.79000        0.31000
C          1.42800        3.44100        0.43700
C          0.23400        7.01400       -0.29300
H         -1.73100        5.28800       -0.26200
C         -2.21400        2.65600        0.00300
H          2.35200        2.91000        0.66300
Br         3.19900        5.54300        0.49700
C         -3.51300        3.45300       -0.08700
H         -3.62100        4.13600        0.76200
H         -3.57400        4.02400       -1.01800
H         -4.36700        2.76500       -0.06400
H         -2.32200        2.05200        0.91300
H         -2.18400        1.97300       -0.85500
C          1.31500        8.07800       -0.03400
C          0.59000        9.36500       -0.45200
N         -0.80900        9.12500       -0.06000
N         -0.90200        7.71700        0.34900
C          1.15800       10.69700       -0.03200
H         -1.79100        7.32700        0.03400
H         -1.05400        9.72600        0.73100
H          1.61900        8.11400        1.02100
H          0.61800        9.38600       -1.55100
H          2.19800        7.93700       -0.66500
H          0.05000        7.02300       -1.38200
C          0.44100       11.84100        0.02000
C          1.06000       13.15900        0.23500
H         -0.62400       11.85600       -0.18400
H          2.23600       10.75100        0.12000
O          0.12100       14.12100        0.16500
O          2.23700       13.41000        0.40600
H          0.61800       14.96000        0.26600
