
 OpenBabel11042013073D

 32 32  0  0  1  0  0  0  0  0999 V2000
    1.5830    0.0860   -0.0000 O   0  0  0  0  0  0  0  0  0  0  0  0
    0.3930    0.7190    0.1220 C   0  0  0  0  0  0  0  0  0  0  0  0
   -0.6180    0.0460    0.2570 O   0  0  0  0  0  0  0  0  0  0  0  0
    0.4160    2.2380    0.0940 C   0  0  1  0  0  0  0  0  0  0  0  0
    2.3820    0.6120   -0.1460 H   0  0  0  0  0  0  0  0  0  0  0  0
   -0.7460    2.9700    0.0490 C   0  0  2  0  0  0  0  0  0  0  0  0
   -0.6470    4.3280    0.0710 C   0  0  0  0  0  0  0  0  0  0  0  0
    0.5350    4.9770    0.1100 C   0  0  2  0  0  0  0  0  0  0  0  0
    1.6600    4.2320    0.1370 C   0  0  0  0  0  0  0  0  0  0  0  0
    1.5990    2.8930    0.1410 C   0  0  0  0  0  0  0  0  0  0  0  0
    0.6870    6.4260    0.1260 C   0  0  0  0  0  0  0  0  0  0  0  0
   -1.5490    4.9250    0.0620 H   0  0  0  0  0  0  0  0  0  0  0  0
   -2.1260    2.2980   -0.0120 C   0  0  0  0  0  0  0  0  0  0  0  0
    2.5630    2.4040    0.1890 H   0  0  0  0  0  0  0  0  0  0  0  0
    2.6350    4.7110    0.1690 H   0  0  0  0  0  0  0  0  0  0  0  0
   -3.3770    3.1340   -0.3010 C   0  0  0  0  0  0  0  0  0  0  0  0
   -4.2650    2.5970    0.0520 H   0  0  0  0  0  0  0  0  0  0  0  0
   -3.3900    4.1070    0.1920 H   0  0  0  0  0  0  0  0  0  0  0  0
   -3.4950    3.2850   -1.3800 H   0  0  0  0  0  0  0  0  0  0  0  0
   -2.1090    1.5360   -0.8010 H   0  0  0  0  0  0  0  0  0  0  0  0
   -2.2950    1.7900    0.9470 H   0  0  0  0  0  0  0  0  0  0  0  0
   -0.2380    7.3960    0.0720 C   0  0  0  0  0  0  0  0  0  0  0  0
    0.1650    8.7020    0.0770 N   0  0  0  0  0  0  0  0  0  0  0  0
   -1.3030    7.1910    0.0190 H   0  0  0  0  0  0  0  0  0  0  0  0
    1.7200    6.7750    0.1770 H   0  0  0  0  0  0  0  0  0  0  0  0
   -0.7160    9.5610   -0.0980 N   0  0  0  0  0  0  0  0  0  0  0  0
   -0.1000   10.8050   -0.0870 N   0  0  0  0  0  0  0  0  0  0  0  0
   -0.9600   11.7020   -0.0490 N   0  0  0  0  0  0  0  0  0  0  0  0
   -0.3750   12.9380   -0.0120 C   0  0  0  0  0  0  0  0  0  0  0  0
   -1.3080   13.9130    0.0320 O   0  0  0  0  0  0  0  0  0  0  0  0
    0.8110   13.2450   -0.0140 O   0  0  0  0  0  0  0  0  0  0  0  0
   -0.7650   14.7260    0.0540 H   0  0  0  0  0  0  0  0  0  0  0  0
  1  5  1  0  0  0  0
  2  1  1  0  0  0  0
  3  2  2  0  0  0  0
  4  2  1  1  0  0  0
  4 10  5  0  0  0  0
  6  4  5  0  0  0  0
  6  7  5  0  0  0  0
  6 13  1  1  0  0  0
  7 12  1  0  0  0  0
  8  7  5  0  0  0  0
  8 11  1  1  0  0  0
  9  8  5  0  0  0  0
  9 15  1  0  0  0  0
 10  9  5  0  0  0  0
 10 14  1  0  0  0  0
 11 25  1  0  0  0  0
 13 20  1  0  0  0  0
 13 21  1  0  0  0  0
 16 17  1  0  0  0  0
 16 18  1  0  0  0  0
 16 19  1  0  0  0  0
 16 13  1  0  0  0  0
 22 11  2  0  0  0  0
 22 24  1  0  0  0  0
 23 22  1  0  0  0  0
 26 23  2  0  0  0  0
 27 26  1  0  0  0  0
 28 27  2  0  0  0  0
 29 28  1  0  0  0  0
 29 31  2  0  0  0  0
 30 29  1  0  0  0  0
 32 30  1  0  0  0  0
M  END
