32

O          1.58300        0.08600       -0.00000
C          0.39300        0.71900        0.12200
O         -0.61800        0.04600        0.25700
C          0.41600        2.23800        0.09400
H          2.38200        0.61200       -0.14600
C         -0.74600        2.97000        0.04900
C         -0.64700        4.32800        0.07100
C          0.53500        4.97700        0.11000
C          1.66000        4.23200        0.13700
C          1.59900        2.89300        0.14100
C          0.68700        6.42600        0.12600
H         -1.54900        4.92500        0.06200
C         -2.12600        2.29800       -0.01200
H          2.56300        2.40400        0.18900
H          2.63500        4.71100        0.16900
C         -3.37700        3.13400       -0.30100
H         -4.26500        2.59700        0.05200
H         -3.39000        4.10700        0.19200
H         -3.49500        3.28500       -1.38000
H         -2.10900        1.53600       -0.80100
H         -2.29500        1.79000        0.94700
C         -0.23800        7.39600        0.07200
N          0.16500        8.70200        0.07700
H         -1.30300        7.19100        0.01900
H          1.72000        6.77500        0.17700
N         -0.71600        9.56100       -0.09800
N         -0.10000       10.80500       -0.08700
N         -0.96000       11.70200       -0.04900
C         -0.37500       12.93800       -0.01200
O         -1.30800       13.91300        0.03200
O          0.81100       13.24500       -0.01400
H         -0.76500       14.72600        0.05400
