
 OpenBabel11042013033D

 35 36  0  0  1  0  0  0  0  0999 V2000
    0.6620    0.2000   -0.1450 O   0  0  0  0  0  0  0  0  0  0  0  0
   -0.3600    1.0600   -0.3140 C   0  0  0  0  0  0  0  0  0  0  0  0
   -1.5020    0.6350   -0.4250 O   0  0  0  0  0  0  0  0  0  0  0  0
   -0.0340    2.5340   -0.2770 C   0  0  1  0  0  0  0  0  0  0  0  0
    1.5440    0.6110   -0.0870 H   0  0  0  0  0  0  0  0  0  0  0  0
   -1.1360    3.3040   -0.1950 C   0  0  0  0  0  0  0  0  0  0  0  0
   -1.0410    4.6360   -0.1380 C   0  0  2  0  0  0  0  0  0  0  0  0
    0.1440    5.2990   -0.1320 C   0  0  2  0  0  0  0  0  0  0  0  0
    1.2820    4.5180   -0.1490 C   0  0  2  0  0  0  0  0  0  0  0  0
    1.1730    3.1520   -0.2760 C   0  0  1  0  0  0  0  0  0  0  0  0
    0.0260    6.8560   -0.0590 C   0  0  1  0  0  0  0  0  0  0  0  0
   -2.2050    5.3200   -0.0360 F   0  0  0  0  0  0  0  0  0  0  0  0
   -2.1360    2.8730   -0.1700 H   0  0  0  0  0  0  0  0  0  0  0  0
    2.6270    2.1740   -0.4200 Cl  0  0  0  0  0  0  0  0  0  0  0  0
    2.6660    5.1270    0.0790 C   0  0  0  0  0  0  0  0  0  0  0  0
    2.8370    5.4630    1.5580 C   0  0  0  0  0  0  0  0  0  0  0  0
    2.1660    6.2650    1.8760 H   0  0  0  0  0  0  0  0  0  0  0  0
    2.6200    4.5900    2.1840 H   0  0  0  0  0  0  0  0  0  0  0  0
    3.8630    5.7790    1.7620 H   0  0  0  0  0  0  0  0  0  0  0  0
    3.4870    4.4600   -0.1950 H   0  0  0  0  0  0  0  0  0  0  0  0
    2.8650    5.9810   -0.5630 H   0  0  0  0  0  0  0  0  0  0  0  0
    1.1900    7.7950   -0.3980 C   0  0  0  0  0  0  0  0  0  0  0  0
    0.5700    9.1080   -0.8700 C   0  0  1  0  0  0  0  0  0  0  0  0
   -0.8710    8.8330   -0.9820 N   0  0  0  0  0  0  0  0  0  0  0  0
   -0.9840    7.3950   -0.9980 N   0  0  0  0  0  0  0  0  0  0  0  0
    0.8570   10.2910    0.0510 C   0  0  0  0  0  0  0  0  0  0  0  0
   -1.9210    7.0690   -0.7390 H   0  0  0  0  0  0  0  0  0  0  0  0
   -1.3590    9.2750   -0.1940 H   0  0  0  0  0  0  0  0  0  0  0  0
    1.7690    7.4140   -1.2430 H   0  0  0  0  0  0  0  0  0  0  0  0
    0.9650    9.3830   -1.8540 H   0  0  0  0  0  0  0  0  0  0  0  0
    1.8480    7.9400    0.4640 H   0  0  0  0  0  0  0  0  0  0  0  0
   -0.3010    7.0890    0.9670 H   0  0  0  0  0  0  0  0  0  0  0  0
   -0.1720   11.1560    0.1770 O   0  0  0  0  0  0  0  0  0  0  0  0
    1.9230   10.5290    0.6070 O   0  0  0  0  0  0  0  0  0  0  0  0
    0.1990   11.9160    0.6730 H   0  0  0  0  0  0  0  0  0  0  0  0
  1  5  1  0  0  0  0
  2  1  1  0  0  0  0
  3  2  2  0  0  0  0
  4  2  1  1  0  0  0
  4 10  5  0  0  0  0
  6  4  5  0  0  0  0
  6  7  5  0  0  0  0
  6 13  1  0  0  0  0
  7 12  1  1  0  0  0
  8  7  5  0  0  0  0
  8 11  1  1  0  0  0
  9  8  5  0  0  0  0
  9 15  1  1  0  0  0
 10  9  5  0  0  0  0
 10 14  1  1  0  0  0
 11 25  1  0  0  0  0
 11 32  1  1  0  0  0
 15 20  1  0  0  0  0
 15 21  1  0  0  0  0
 16 17  1  0  0  0  0
 16 18  1  0  0  0  0
 16 19  1  0  0  0  0
 16 15  1  0  0  0  0
 22 11  1  0  0  0  0
 22 29  1  0  0  0  0
 22 31  1  0  0  0  0
 23 22  1  0  0  0  0
 23 30  1  6  0  0  0
 24 23  1  0  0  0  0
 25 24  1  0  0  0  0
 26 23  1  0  0  0  0
 26 34  2  0  0  0  0
 27 25  1  0  0  0  0
 28 24  1  0  0  0  0
 33 26  1  0  0  0  0
 35 33  1  0  0  0  0
M  END
