
 OpenBabel02032115563D

 45 47  0  0  1  0  0  0  0  0999 V2000
    1.8880   -0.3410   -0.1100 O   0  0  0  0  0  0  0  0  0  0  0  0
    0.6730    0.1480   -0.1560 C   0  0  0  0  0  0  0  0  0  0  0  0
   -0.2830   -0.5990   -0.2350 O   0  0  0  0  0  0  0  0  0  0  0  0
    0.4720    1.5540   -0.0580 C   0  0  1  0  0  0  0  0  0  0  0  0
    2.5030    0.4170    0.0000 H   0  0  0  0  0  0  0  0  0  0  0  0
   -0.7520    2.1070   -0.0390 C   0  0  0  0  0  0  0  0  0  0  0  0
   -0.9270    3.4360    0.0840 C   0  0  2  0  0  0  0  0  0  0  0  0
    0.1650    4.2240    0.1970 C   0  0  2  0  0  0  0  0  0  0  0  0
    1.3760    3.6650    0.1660 C   0  0  0  0  0  0  0  0  0  0  0  0
    1.5320    2.3610    0.0330 C   0  0  0  0  0  0  0  0  0  0  0  0
    0.0680    5.7360    0.4090 C   0  0  1  0  0  0  0  0  0  0  0  0
   -2.3300    4.0640    0.1080 C   0  0  0  0  0  0  0  0  0  0  0  0
   -1.6190    1.4570   -0.1120 H   0  0  0  0  0  0  0  0  0  0  0  0
    2.5470    1.9730    0.0150 H   0  0  0  0  0  0  0  0  0  0  0  0
    2.2810    4.2530    0.2590 H   0  0  0  0  0  0  0  0  0  0  0  0
    1.2300    6.5400   -0.2480 C   0  0  0  0  0  0  0  0  0  0  0  0
    1.0910    8.0110   -0.1070 N   0  0  0  0  0  0  0  0  0  0  0  0
    0.0710    7.5860   -0.0930 N   0  0  0  0  0  0  0  0  0  0  0  0
   -0.6530    6.5710    0.3970 N   0  0  0  0  0  0  0  0  0  0  0  0
    1.2530    8.5510    1.1100 N   0  0  0  0  0  0  0  0  0  0  0  0
    2.1720    6.2800    0.2450 H   0  0  0  0  0  0  0  0  0  0  0  0
    1.3490    6.2450   -1.3070 H   0  0  0  0  0  0  0  0  0  0  0  0
    0.0240    5.9180    1.4910 H   0  0  0  0  0  0  0  0  0  0  0  0
    1.6700    9.7610    1.1260 N   0  0  0  0  0  0  0  0  0  0  0  0
    1.2150   10.6820    0.0420 C   0  0  2  0  0  0  0  0  0  0  0  0
    1.6540   12.0360    0.2510 O   0  0  0  0  0  0  0  0  0  0  0  0
   -0.5980   12.2500   -0.3640 C   0  0  0  0  0  0  0  0  0  0  0  0
   -0.3240   10.7930   -0.0100 C   0  0  0  0  0  0  0  0  0  0  0  0
    0.8370   14.3390   -0.1620 C   0  0  0  0  0  0  0  0  0  0  0  0
   -0.7380   10.1300   -0.7730 H   0  0  0  0  0  0  0  0  0  0  0  0
   -1.1930   12.3370   -1.2770 H   0  0  0  0  0  0  0  0  0  0  0  0
   -1.1380   12.7270    0.4580 H   0  0  0  0  0  0  0  0  0  0  0  0
   -0.7790   10.5490    0.9540 H   0  0  0  0  0  0  0  0  0  0  0  0
    1.1110   12.7940   -1.5960 H   0  0  0  0  0  0  0  0  0  0  0  0
    0.7990   12.8760   -0.5520 C   0  0  1  0  0  0  0  0  0  0  0  0
    1.6190   10.3580   -0.9290 H   0  0  0  0  0  0  0  0  0  0  0  0
   -3.5390    3.1420   -0.1510 C   0  0  0  0  0  0  0  0  0  0  0  0
   -4.4540    3.7390   -0.1740 H   0  0  0  0  0  0  0  0  0  0  0  0
   -3.6440    2.3980    0.6410 H   0  0  0  0  0  0  0  0  0  0  0  0
   -3.4450    2.6360   -1.1140 H   0  0  0  0  0  0  0  0  0  0  0  0
   -2.4850    4.5480    1.0760 H   0  0  0  0  0  0  0  0  0  0  0  0
   -2.3770    4.8490   -0.6490 H   0  0  0  0  0  0  0  0  0  0  0  0
   -0.1690   14.9480   -0.7280 O   0  0  0  0  0  0  0  0  0  0  0  0
    1.2510   14.7040    0.9190 O   0  0  0  0  0  0  0  0  0  0  0  0
   -0.7700   15.1770    0.0000 H   0  0  0  0  0  0  0  0  0  0  0  0
  1  5  1  0  0  0  0
  2  1  1  0  0  0  0
  3  2  2  0  0  0  0
  4  2  1  1  0  0  0
  4 10  5  0  0  0  0
  6  4  5  0  0  0  0
  6  7  5  0  0  0  0
  6 13  1  0  0  0  0
  7 12  1  1  0  0  0
  8  7  5  0  0  0  0
  8  9  5  1  0  0  0
  8 11  1  0  0  0  0
  9 15  1  0  0  0  0
 10  9  5  0  0  0  0
 10 14  1  0  0  0  0
 11 19  1  0  0  0  0
 11 23  1  1  0  0  0
 12 41  1  0  0  0  0
 12 42  1  0  0  0  0
 16 11  1  0  0  0  0
 16 21  1  0  0  0  0
 16 22  1  0  0  0  0
 17 16  1  0  0  0  0
 18 17  1  0  0  0  0
 19 18  2  0  0  0  0
 20 17  1  0  0  0  0
 24 20  2  0  0  0  0
 25 24  1  0  0  0  0
 25 28  1  0  0  0  0
 25 36  1  6  0  0  0
 26 25  1  0  0  0  0
 27 35  1  0  0  0  0
 27 32  1  0  0  0  0
 28 27  1  0  0  0  0
 28 33  1  0  0  0  0
 29 35  1  0  0  0  0
 29 44  2  0  0  0  0
 30 28  1  0  0  0  0
 31 27  1  0  0  0  0
 35 26  1  0  0  0  0
 35 34  1  6  0  0  0
 37 38  1  0  0  0  0
 37 39  1  0  0  0  0
 37 40  1  0  0  0  0
 37 12  1  0  0  0  0
 43 29  1  0  0  0  0
 45 43  1  0  0  0  0
M  END
