51

O          1.16600        3.13000        0.17900
C          0.05800        3.90100        0.13900
O         -1.03700        3.37000        0.07000
C          0.33600        5.36800        0.13900
H          0.79400        2.22100        0.12000
C         -0.74100        6.14500       -0.07100
C         -0.61200        7.48200       -0.14400
C          0.58100        8.12300       -0.00100
C          1.65400        7.31600        0.24200
C          1.54500        5.96200        0.30700
C          0.62100        9.66800       -0.22500
H         -1.52400        8.02600       -0.36000
H         -1.72800        5.70700       -0.21600
O          2.70200        5.22100        0.51500
H          2.63700        7.75400        0.35700
C          1.68300       10.76500        0.18000
C          0.95800       12.02800       -0.36400
N         -0.45700       11.75000        0.03700
N         -0.58900       10.33900        0.30000
C          1.19100       13.60500       -0.33200
H         -1.41900        9.98700       -0.17600
H         -0.63000       12.28400        0.90100
H          2.64000       10.59000       -0.32200
H          0.97200       11.84400       -1.45200
H          1.83600       10.79800        1.26500
H          0.57100        9.71600       -1.32700
C          2.31300       14.56500        0.13100
C          1.65000       15.94100       -0.27600
N          0.23900       15.72300        0.14100
N          0.01900       14.30200        0.26500
C          2.10100       17.41400       -0.02000
H         -0.81800       14.00600       -0.25500
H          0.10600       16.16700        1.05500
H          3.25100       14.40400       -0.40800
H          1.64400       15.92000       -1.37900
H          2.49400       14.51500        1.21100
H          1.12300       13.82100       -1.41400
C          1.15900       18.40100       -0.01500
C          1.46300       19.70800        0.09600
C          2.75000       20.09100        0.19600
C          3.70500       19.13700        0.21300
C          3.38900       17.82200        0.11600
C          3.12900       21.53600        0.24900
H          0.65900       20.44100        0.07300
H          0.10300       18.16500       -0.14200
H          4.19500       17.09600        0.10300
H          4.75200       19.43500        0.28700
H          2.51900        4.25800        0.47000
O          2.07600       22.37700        0.16700
O          4.26200       21.98100        0.33000
H          2.47900       23.27100        0.18500
