
 OpenBabel11042013073D

 51 54  0  0  1  0  0  0  0  0999 V2000
    1.1660    3.1300    0.1790 O   0  0  0  0  0  0  0  0  0  0  0  0
    0.0580    3.9010    0.1390 C   0  0  0  0  0  0  0  0  0  0  0  0
   -1.0370    3.3700    0.0700 O   0  0  0  0  0  0  0  0  0  0  0  0
    0.3360    5.3680    0.1390 C   0  0  2  0  0  0  0  0  0  0  0  0
    0.7940    2.2210    0.1200 H   0  0  0  0  0  0  0  0  0  0  0  0
   -0.7410    6.1450   -0.0710 C   0  0  0  0  0  0  0  0  0  0  0  0
   -0.6120    7.4820   -0.1440 C   0  0  0  0  0  0  0  0  0  0  0  0
    0.5810    8.1230   -0.0010 C   0  0  1  0  0  0  0  0  0  0  0  0
    1.6540    7.3160    0.2420 C   0  0  0  0  0  0  0  0  0  0  0  0
    1.5450    5.9620    0.3070 C   0  0  2  0  0  0  0  0  0  0  0  0
    0.6210    9.6680   -0.2250 C   0  0  2  0  0  0  0  0  0  0  0  0
   -1.5240    8.0260   -0.3600 H   0  0  0  0  0  0  0  0  0  0  0  0
   -1.7280    5.7070   -0.2160 H   0  0  0  0  0  0  0  0  0  0  0  0
    2.7020    5.2210    0.5150 O   0  0  0  0  0  0  0  0  0  0  0  0
    2.6370    7.7540    0.3570 H   0  0  0  0  0  0  0  0  0  0  0  0
    1.6830   10.7650    0.1800 C   0  0  0  0  0  0  0  0  0  0  0  0
    0.9580   12.0280   -0.3640 C   0  0  1  0  0  0  0  0  0  0  0  0
   -0.4570   11.7500    0.0370 N   0  0  0  0  0  0  0  0  0  0  0  0
   -0.5890   10.3390    0.3000 N   0  0  0  0  0  0  0  0  0  0  0  0
    1.1910   13.6050   -0.3320 C   0  0  2  0  0  0  0  0  0  0  0  0
   -1.4190    9.9870   -0.1760 H   0  0  0  0  0  0  0  0  0  0  0  0
   -0.6300   12.2840    0.9010 H   0  0  0  0  0  0  0  0  0  0  0  0
    2.6400   10.5900   -0.3220 H   0  0  0  0  0  0  0  0  0  0  0  0
    0.9720   11.8440   -1.4520 H   0  0  0  0  0  0  0  0  0  0  0  0
    1.8360   10.7980    1.2650 H   0  0  0  0  0  0  0  0  0  0  0  0
    0.5710    9.7160   -1.3270 H   0  0  0  0  0  0  0  0  0  0  0  0
    2.3130   14.5650    0.1310 C   0  0  0  0  0  0  0  0  0  0  0  0
    1.6500   15.9410   -0.2760 C   0  0  1  0  0  0  0  0  0  0  0  0
    0.2390   15.7230    0.1410 N   0  0  0  0  0  0  0  0  0  0  0  0
    0.0190   14.3020    0.2650 N   0  0  0  0  0  0  0  0  0  0  0  0
    2.1010   17.4140   -0.0200 C   0  0  2  0  0  0  0  0  0  0  0  0
   -0.8180   14.0060   -0.2550 H   0  0  0  0  0  0  0  0  0  0  0  0
    0.1060   16.1670    1.0550 H   0  0  0  0  0  0  0  0  0  0  0  0
    3.2510   14.4040   -0.4080 H   0  0  0  0  0  0  0  0  0  0  0  0
    1.6440   15.9200   -1.3790 H   0  0  0  0  0  0  0  0  0  0  0  0
    2.4940   14.5150    1.2110 H   0  0  0  0  0  0  0  0  0  0  0  0
    1.1230   13.8210   -1.4140 H   0  0  0  0  0  0  0  0  0  0  0  0
    1.1590   18.4010   -0.0150 C   0  0  0  0  0  0  0  0  0  0  0  0
    1.4630   19.7080    0.0960 C   0  0  0  0  0  0  0  0  0  0  0  0
    2.7500   20.0910    0.1960 C   0  0  1  0  0  0  0  0  0  0  0  0
    3.7050   19.1370    0.2130 C   0  0  0  0  0  0  0  0  0  0  0  0
    3.3890   17.8220    0.1160 C   0  0  0  0  0  0  0  0  0  0  0  0
    3.1290   21.5360    0.2490 C   0  0  0  0  0  0  0  0  0  0  0  0
    0.6590   20.4410    0.0730 H   0  0  0  0  0  0  0  0  0  0  0  0
    0.1030   18.1650   -0.1420 H   0  0  0  0  0  0  0  0  0  0  0  0
    4.1950   17.0960    0.1030 H   0  0  0  0  0  0  0  0  0  0  0  0
    4.7520   19.4350    0.2870 H   0  0  0  0  0  0  0  0  0  0  0  0
    2.5190    4.2580    0.4700 H   0  0  0  0  0  0  0  0  0  0  0  0
    2.0760   22.3770    0.1670 O   0  0  0  0  0  0  0  0  0  0  0  0
    4.2620   21.9810    0.3300 O   0  0  0  0  0  0  0  0  0  0  0  0
    2.4790   23.2710    0.1850 H   0  0  0  0  0  0  0  0  0  0  0  0
  1  5  1  0  0  0  0
  2  1  1  0  0  0  0
  3  2  2  0  0  0  0
  4  2  1  6  0  0  0
  4 10  5  0  0  0  0
  6  4  5  0  0  0  0
  6  7  5  0  0  0  0
  6 13  1  0  0  0  0
  7 12  1  0  0  0  0
  8  7  5  6  0  0  0
  8 11  1  0  0  0  0
  9  8  5  0  0  0  0
  9 15  1  0  0  0  0
 10  9  5  0  0  0  0
 10 14  1  6  0  0  0
 11 19  1  0  0  0  0
 11 26  1  6  0  0  0
 14 48  1  0  0  0  0
 16 11  1  0  0  0  0
 16 23  1  0  0  0  0
 16 25  1  0  0  0  0
 17 16  1  0  0  0  0
 17 24  1  6  0  0  0
 18 17  1  0  0  0  0
 19 18  1  0  0  0  0
 20 17  1  0  0  0  0
 20 30  1  0  0  0  0
 20 37  1  6  0  0  0
 21 19  1  0  0  0  0
 22 18  1  0  0  0  0
 27 20  1  0  0  0  0
 27 34  1  0  0  0  0
 27 36  1  0  0  0  0
 28 27  1  0  0  0  0
 28 35  1  6  0  0  0
 29 28  1  0  0  0  0
 30 29  1  0  0  0  0
 31 28  1  0  0  0  0
 31 38  5  6  0  0  0
 31 42  5  0  0  0  0
 32 30  1  0  0  0  0
 33 29  1  0  0  0  0
 38 39  5  0  0  0  0
 38 45  1  0  0  0  0
 39 44  1  0  0  0  0
 40 39  5  0  0  0  0
 40 43  1  6  0  0  0
 41 40  5  0  0  0  0
 41 47  1  0  0  0  0
 42 41  5  0  0  0  0
 42 46  1  0  0  0  0
 43 50  2  0  0  0  0
 49 43  1  0  0  0  0
 51 49  1  0  0  0  0
M  END
