
 OpenBabel11042013073D

 40 41  0  0  1  0  0  0  0  0999 V2000
    1.5730    0.9750    0.2030 O   0  0  0  0  0  0  0  0  0  0  0  0
    0.4080    1.5040   -0.2380 C   0  0  0  0  0  0  0  0  0  0  0  0
   -0.4730    0.7950   -0.6970 O   0  0  0  0  0  0  0  0  0  0  0  0
    0.3240    2.9970   -0.1460 C   0  0  1  0  0  0  0  0  0  0  0  0
    2.1570    1.5810    0.6900 H   0  0  0  0  0  0  0  0  0  0  0  0
   -0.8470    3.6010    0.1330 C   0  0  2  0  0  0  0  0  0  0  0  0
   -0.8970    4.9610    0.1900 C   0  0  2  0  0  0  0  0  0  0  0  0
    0.2140    5.7580    0.0240 C   0  0  2  0  0  0  0  0  0  0  0  0
    1.4080    5.1020   -0.1550 C   0  0  2  0  0  0  0  0  0  0  0  0
    1.4290    3.7540   -0.3010 C   0  0  0  0  0  0  0  0  0  0  0  0
    0.0930    7.3210    0.1770 C   0  0  1  0  0  0  0  0  0  0  0  0
   -2.1630    5.5270    0.5600 C   0  0  0  0  0  0  0  0  0  0  0  0
   -2.9340    2.6440   -0.4990 C   0  0  0  0  0  0  0  0  0  0  0  0
    2.3800    3.2620   -0.5010 H   0  0  0  0  0  0  0  0  0  0  0  0
    2.7910    5.7380   -0.0650 C   0  0  0  0  0  0  0  0  0  0  0  0
    1.1330    8.3210   -0.3670 C   0  0  0  0  0  0  0  0  0  0  0  0
    0.5050    9.6450    0.0380 C   0  0  2  0  0  0  0  0  0  0  0  0
   -0.9350    9.4130   -0.1730 N   0  0  0  0  0  0  0  0  0  0  0  0
   -1.0790    7.9840   -0.4580 N   0  0  0  0  0  0  0  0  0  0  0  0
    1.0140   10.8850   -0.6760 C   0  0  0  0  0  0  0  0  0  0  0  0
   -1.9670    7.6760   -0.0480 H   0  0  0  0  0  0  0  0  0  0  0  0
   -1.2750   10.0020   -0.9430 H   0  0  0  0  0  0  0  0  0  0  0  0
    2.1230    8.2670    0.0810 H   0  0  0  0  0  0  0  0  0  0  0  0
    0.6710    9.8160    1.1100 H   0  0  0  0  0  0  0  0  0  0  0  0
    1.2540    8.2430   -1.4590 H   0  0  0  0  0  0  0  0  0  0  0  0
    0.0240    7.4710    1.2650 H   0  0  0  0  0  0  0  0  0  0  0  0
   -3.9140    2.8410   -0.0540 H   0  0  0  0  0  0  0  0  0  0  0  0
   -2.7990    3.2980   -1.3660 H   0  0  0  0  0  0  0  0  0  0  0  0
   -2.9160    1.5990   -0.8190 H   0  0  0  0  0  0  0  0  0  0  0  0
   -1.9460    2.8350    0.5150 O   0  0  0  0  0  0  0  0  0  0  0  0
   -3.1750    6.0320    0.8190 N   0  0  0  0  0  0  0  0  0  0  0  0
    3.0940    6.1430    1.3820 C   0  0  0  0  0  0  0  0  0  0  0  0
    2.8460    5.3350    2.0800 H   0  0  0  0  0  0  0  0  0  0  0  0
    2.5220    7.0180    1.7040 H   0  0  0  0  0  0  0  0  0  0  0  0
    4.1550    6.3790    1.5030 H   0  0  0  0  0  0  0  0  0  0  0  0
    2.9240    6.5500   -0.7820 H   0  0  0  0  0  0  0  0  0  0  0  0
    3.5690    5.0150   -0.3480 H   0  0  0  0  0  0  0  0  0  0  0  0
    0.0790   11.8580   -0.7820 O   0  0  0  0  0  0  0  0  0  0  0  0
    2.1620   11.0940   -1.0350 O   0  0  0  0  0  0  0  0  0  0  0  0
    0.5630   12.6420   -1.1150 H   0  0  0  0  0  0  0  0  0  0  0  0
  1  5  1  0  0  0  0
  2  1  1  0  0  0  0
  3  2  2  0  0  0  0
  4  2  1  1  0  0  0
  4 10  5  0  0  0  0
  6  4  5  0  0  0  0
  6  7  5  0  0  0  0
  6 30  1  1  0  0  0
  7 12  1  1  0  0  0
  8  7  5  0  0  0  0
  8 11  1  1  0  0  0
  9  8  5  0  0  0  0
  9 15  1  1  0  0  0
 10  9  5  0  0  0  0
 10 14  1  0  0  0  0
 11 19  1  0  0  0  0
 11 26  1  1  0  0  0
 12 31  3  0  0  0  0
 13 27  1  0  0  0  0
 13 28  1  0  0  0  0
 13 29  1  0  0  0  0
 13 30  1  0  0  0  0
 15 36  1  0  0  0  0
 15 37  1  0  0  0  0
 16 11  1  0  0  0  0
 16 23  1  0  0  0  0
 16 25  1  0  0  0  0
 17 16  1  0  0  0  0
 17 24  1  1  0  0  0
 18 17  1  0  0  0  0
 19 18  1  0  0  0  0
 20 17  1  0  0  0  0
 20 39  2  0  0  0  0
 21 19  1  0  0  0  0
 22 18  1  0  0  0  0
 32 33  1  0  0  0  0
 32 34  1  0  0  0  0
 32 35  1  0  0  0  0
 32 15  1  0  0  0  0
 38 20  1  0  0  0  0
 40 38  1  0  0  0  0
M  END
