
 OpenBabel11042013073D

 37 38  0  0  1  0  0  0  0  0999 V2000
    1.2670    0.4240    0.0710 O   0  0  0  0  0  0  0  0  0  0  0  0
    0.1120    0.9020   -0.4400 C   0  0  0  0  0  0  0  0  0  0  0  0
   -0.7070    0.1870   -0.9910 O   0  0  0  0  0  0  0  0  0  0  0  0
   -0.0580    2.3780   -0.2830 C   0  0  2  0  0  0  0  0  0  0  0  0
    1.8140    1.0640    0.5600 H   0  0  0  0  0  0  0  0  0  0  0  0
   -1.2320    2.9140    0.1290 C   0  0  2  0  0  0  0  0  0  0  0  0
   -1.3820    4.2780    0.1700 C   0  0  1  0  0  0  0  0  0  0  0  0
   -0.3010    5.0860   -0.1450 C   0  0  2  0  0  0  0  0  0  0  0  0
    0.8820    4.5050   -0.4900 C   0  0  1  0  0  0  0  0  0  0  0  0
    0.9780    3.1700   -0.6030 C   0  0  0  0  0  0  0  0  0  0  0  0
   -0.4230    6.6220   -0.0180 C   0  0  1  0  0  0  0  0  0  0  0  0
   -2.7250    4.9580    0.5530 C   0  0  0  0  0  0  0  0  0  0  0  0
   -2.2650    2.0160    0.5770 C   0  0  0  0  0  0  0  0  0  0  0  0
    1.9140    2.7440   -0.9620 H   0  0  0  0  0  0  0  0  0  0  0  0
    2.9460    5.2950    0.2810 C   0  0  0  0  0  0  0  0  0  0  0  0
   -3.0650    1.3000    1.0100 N   0  0  0  0  0  0  0  0  0  0  0  0
    2.4520    5.4050    1.2530 H   0  0  0  0  0  0  0  0  0  0  0  0
    3.5880    6.1690    0.1290 H   0  0  0  0  0  0  0  0  0  0  0  0
    3.5710    4.3980    0.2700 H   0  0  0  0  0  0  0  0  0  0  0  0
    2.0010    5.2630   -0.7940 O   0  0  0  0  0  0  0  0  0  0  0  0
    0.7250    7.6110   -0.0820 C   0  0  0  0  0  0  0  0  0  0  0  0
   -0.0410    8.7890   -0.4050 N   0  0  0  0  0  0  0  0  0  0  0  0
   -1.1780    8.4690   -1.0830 N   0  0  0  0  0  0  0  0  0  0  0  0
   -1.3200    7.2130   -1.0530 N   0  0  0  0  0  0  0  0  0  0  0  0
    0.2870   10.0640   -0.0490 C   0  0  0  0  0  0  0  0  0  0  0  0
    1.4110    7.4750   -0.9210 H   0  0  0  0  0  0  0  0  0  0  0  0
    1.2770    7.7260    0.8540 H   0  0  0  0  0  0  0  0  0  0  0  0
   -0.8940    6.7990    0.9620 H   0  0  0  0  0  0  0  0  0  0  0  0
   -4.0750    4.2770    0.3430 C   0  0  0  0  0  0  0  0  0  0  0  0
   -4.8660    5.0360    0.3040 H   0  0  0  0  0  0  0  0  0  0  0  0
   -4.3270    3.6240    1.1820 H   0  0  0  0  0  0  0  0  0  0  0  0
   -4.1160    3.7200   -0.5980 H   0  0  0  0  0  0  0  0  0  0  0  0
   -2.8400    5.8550   -0.0570 H   0  0  0  0  0  0  0  0  0  0  0  0
   -2.6590    5.2970    1.5940 H   0  0  0  0  0  0  0  0  0  0  0  0
   -0.6480   10.9810   -0.3700 O   0  0  0  0  0  0  0  0  0  0  0  0
    1.2950   10.4080    0.5500 O   0  0  0  0  0  0  0  0  0  0  0  0
   -0.2890   11.8170   -0.0130 H   0  0  0  0  0  0  0  0  0  0  0  0
  1  5  1  0  0  0  0
  2  1  1  0  0  0  0
  3  2  2  0  0  0  0
  4  2  1  6  0  0  0
  4 10  5  0  0  0  0
  6  4  5  0  0  0  0
  6  7  5  0  0  0  0
  6 13  1  1  0  0  0
  7 12  1  6  0  0  0
  8  7  5  0  0  0  0
  8 11  1  1  0  0  0
  9  8  5  0  0  0  0
  9 20  1  6  0  0  0
 10  9  5  0  0  0  0
 10 14  1  0  0  0  0
 11 24  1  0  0  0  0
 11 28  1  1  0  0  0
 12 33  1  0  0  0  0
 12 34  1  0  0  0  0
 13 16  3  0  0  0  0
 15 17  1  0  0  0  0
 15 18  1  0  0  0  0
 15 19  1  0  0  0  0
 15 20  1  0  0  0  0
 21 11  1  0  0  0  0
 21 26  1  0  0  0  0
 21 27  1  0  0  0  0
 22 21  1  0  0  0  0
 23 22  1  0  0  0  0
 24 23  2  0  0  0  0
 25 22  1  0  0  0  0
 25 36  2  0  0  0  0
 29 30  1  0  0  0  0
 29 31  1  0  0  0  0
 29 32  1  0  0  0  0
 29 12  1  0  0  0  0
 35 25  1  0  0  0  0
 37 35  1  0  0  0  0
M  END
