37

O          1.26700        0.42400        0.07100
C          0.11200        0.90200       -0.44000
O         -0.70700        0.18700       -0.99100
C         -0.05800        2.37800       -0.28300
H          1.81400        1.06400        0.56000
C         -1.23200        2.91400        0.12900
C         -1.38200        4.27800        0.17000
C         -0.30100        5.08600       -0.14500
C          0.88200        4.50500       -0.49000
C          0.97800        3.17000       -0.60300
C         -0.42300        6.62200       -0.01800
C         -2.72500        4.95800        0.55300
C         -2.26500        2.01600        0.57700
H          1.91400        2.74400       -0.96200
C          2.94600        5.29500        0.28100
N         -3.06500        1.30000        1.01000
H          2.45200        5.40500        1.25300
H          3.58800        6.16900        0.12900
H          3.57100        4.39800        0.27000
O          2.00100        5.26300       -0.79400
C          0.72500        7.61100       -0.08200
N         -0.04100        8.78900       -0.40500
N         -1.17800        8.46900       -1.08300
N         -1.32000        7.21300       -1.05300
C          0.28700       10.06400       -0.04900
H          1.41100        7.47500       -0.92100
H          1.27700        7.72600        0.85400
H         -0.89400        6.79900        0.96200
C         -4.07500        4.27700        0.34300
H         -4.86600        5.03600        0.30400
H         -4.32700        3.62400        1.18200
H         -4.11600        3.72000       -0.59800
H         -2.84000        5.85500       -0.05700
H         -2.65900        5.29700        1.59400
O         -0.64800       10.98100       -0.37000
O          1.29500       10.40800        0.55000
H         -0.28900       11.81700       -0.01300
