
 OpenBabel11042013073D

 38 40  0  0  1  0  0  0  0  0999 V2000
    1.4330   -1.0000   -0.0880 O   0  0  0  0  0  0  0  0  0  0  0  0
    0.2620   -0.3440   -0.0260 C   0  0  0  0  0  0  0  0  0  0  0  0
   -0.7910   -0.9680   -0.0070 O   0  0  0  0  0  0  0  0  0  0  0  0
    0.3390    1.1540    0.0180 C   0  0  1  0  0  0  0  0  0  0  0  0
    2.2190   -0.4250   -0.0910 H   0  0  0  0  0  0  0  0  0  0  0  0
   -0.8870    1.7240    0.0250 C   0  0  0  0  0  0  0  0  0  0  0  0
   -1.0400    3.0500    0.1140 C   0  0  2  0  0  0  0  0  0  0  0  0
    0.0390    3.8600    0.1820 C   0  0  2  0  0  0  0  0  0  0  0  0
    1.2680    3.2970    0.1430 C   0  0  0  0  0  0  0  0  0  0  0  0
    1.4350    1.9570    0.0640 C   0  0  1  0  0  0  0  0  0  0  0  0
   -0.1290    5.3490    0.3000 C   0  0  1  0  0  0  0  0  0  0  0  0
   -2.3900    3.5440    0.1370 N   0  0  0  0  0  0  0  0  0  0  0  0
   -1.7930    1.1170   -0.0260 H   0  0  0  0  0  0  0  0  0  0  0  0
    3.2290    1.3640    0.0430 Br  0  0  0  0  0  0  0  0  0  0  0  0
    2.1480    3.9340    0.1860 H   0  0  0  0  0  0  0  0  0  0  0  0
   -2.5830    3.9560   -0.7850 H   0  0  0  0  0  0  0  0  0  0  0  0
   -2.4610    4.3960    0.7000 H   0  0  0  0  0  0  0  0  0  0  0  0
    0.9830    6.3270   -0.0220 C   0  0  0  0  0  0  0  0  0  0  0  0
    0.1320    7.4390   -0.3370 N   0  0  0  0  0  0  0  0  0  0  0  0
   -1.0640    7.0250   -0.8480 N   0  0  0  0  0  0  0  0  0  0  0  0
   -1.1850    5.8060   -0.6390 N   0  0  0  0  0  0  0  0  0  0  0  0
    0.2940    8.7700   -0.0760 C   0  0  2  0  0  0  0  0  0  0  0  0
    1.6480    6.5180    0.8250 H   0  0  0  0  0  0  0  0  0  0  0  0
    1.5550    6.0660   -0.9190 H   0  0  0  0  0  0  0  0  0  0  0  0
   -0.4820    5.5550    1.3230 H   0  0  0  0  0  0  0  0  0  0  0  0
   -0.8200    9.5200    0.0790 C   0  0  0  0  0  0  0  0  0  0  0  0
   -0.7510   10.8480    0.1940 C   0  0  0  0  0  0  0  0  0  0  0  0
    0.4470   11.4560    0.1410 C   0  0  1  0  0  0  0  0  0  0  0  0
    1.5780   10.7190    0.0730 C   0  0  0  0  0  0  0  0  0  0  0  0
    1.5000    9.3750   -0.0190 C   0  0  0  0  0  0  0  0  0  0  0  0
    0.4950   12.9340    0.0970 C   0  0  0  0  0  0  0  0  0  0  0  0
   -1.6840   11.3990    0.2810 H   0  0  0  0  0  0  0  0  0  0  0  0
   -1.8060    9.0580    0.1060 H   0  0  0  0  0  0  0  0  0  0  0  0
    2.4180    8.7930   -0.1110 H   0  0  0  0  0  0  0  0  0  0  0  0
    2.5520   11.2010    0.0470 H   0  0  0  0  0  0  0  0  0  0  0  0
   -0.7110   13.4800   -0.1620 O   0  0  0  0  0  0  0  0  0  0  0  0
    1.4920   13.6250    0.1970 O   0  0  0  0  0  0  0  0  0  0  0  0
   -0.5480   14.4380   -0.2410 H   0  0  0  0  0  0  0  0  0  0  0  0
  1  5  1  0  0  0  0
  2  1  1  0  0  0  0
  3  2  2  0  0  0  0
  4  2  1  1  0  0  0
  4 10  5  0  0  0  0
  6  4  5  0  0  0  0
  6  7  5  0  0  0  0
  6 13  1  0  0  0  0
  7 12  1  1  0  0  0
  8  7  5  0  0  0  0
  8  9  5  1  0  0  0
  8 11  1  0  0  0  0
  9 15  1  0  0  0  0
 10  9  5  0  0  0  0
 10 14  1  1  0  0  0
 11 21  1  0  0  0  0
 11 25  1  1  0  0  0
 12 16  1  0  0  0  0
 12 17  1  0  0  0  0
 18 11  1  0  0  0  0
 18 23  1  0  0  0  0
 18 24  1  0  0  0  0
 19 18  1  0  0  0  0
 20 19  1  0  0  0  0
 21 20  2  0  0  0  0
 22 19  1  6  0  0  0
 22 30  5  0  0  0  0
 26 22  5  0  0  0  0
 26 27  5  0  0  0  0
 26 33  1  0  0  0  0
 27 32  1  0  0  0  0
 28 27  5  0  0  0  0
 28 31  1  6  0  0  0
 29 28  5  0  0  0  0
 29 35  1  0  0  0  0
 30 29  5  0  0  0  0
 30 34  1  0  0  0  0
 31 37  2  0  0  0  0
 36 31  1  0  0  0  0
 38 36  1  0  0  0  0
M  END
