38

O          1.43300       -1.00000       -0.08800
C          0.26200       -0.34400       -0.02600
O         -0.79100       -0.96800       -0.00700
C          0.33900        1.15400        0.01800
H          2.21900       -0.42500       -0.09100
C         -0.88700        1.72400        0.02500
C         -1.04000        3.05000        0.11400
C          0.03900        3.86000        0.18200
C          1.26800        3.29700        0.14300
C          1.43500        1.95700        0.06400
C         -0.12900        5.34900        0.30000
N         -2.39000        3.54400        0.13700
H         -1.79300        1.11700       -0.02600
Br         3.22900        1.36400        0.04300
H          2.14800        3.93400        0.18600
H         -2.58300        3.95600       -0.78500
H         -2.46100        4.39600        0.70000
C          0.98300        6.32700       -0.02200
N          0.13200        7.43900       -0.33700
N         -1.06400        7.02500       -0.84800
N         -1.18500        5.80600       -0.63900
C          0.29400        8.77000       -0.07600
H          1.64800        6.51800        0.82500
H          1.55500        6.06600       -0.91900
H         -0.48200        5.55500        1.32300
C         -0.82000        9.52000        0.07900
C         -0.75100       10.84800        0.19400
C          0.44700       11.45600        0.14100
C          1.57800       10.71900        0.07300
C          1.50000        9.37500       -0.01900
C          0.49500       12.93400        0.09700
H         -1.68400       11.39900        0.28100
H         -1.80600        9.05800        0.10600
H          2.41800        8.79300       -0.11100
H          2.55200       11.20100        0.04700
O         -0.71100       13.48000       -0.16200
O          1.49200       13.62500        0.19700
H         -0.54800       14.43800       -0.24100
