50

O          1.70500       -1.05200       -0.05300
C          0.62600       -0.62900        0.64400
O         -0.06500       -1.37800        1.31100
C          0.35100        0.82200        0.46900
H          2.11000       -0.38500       -0.63900
C         -0.89800        1.25800        0.19100
C         -1.08700        2.57900       -0.02900
C         -0.06200        3.47300        0.01700
C          1.15900        3.01200        0.35200
C          1.37100        1.70200        0.57900
C         -0.25300        4.91200       -0.41700
H         -2.08900        2.91500       -0.29400
C         -2.02500        0.38600        0.05400
H          2.37600        1.37200        0.83300
H          2.00000        3.70600        0.40400
O          0.42400        5.92500        0.37200
C         -1.45000        6.94300       -0.66300
C         -1.67200        5.45400       -0.52400
C          0.41400        8.48500        0.24000
H         -2.23000        5.04100       -1.36900
H         -1.65000        7.30100       -1.67900
H         -2.14600        7.46500       -0.00100
H         -2.23600        5.26000        0.39700
H          0.56600        7.07100       -1.28800
C          0.03800        7.12600       -0.32200
H          0.19700        4.94700       -1.42400
C         -0.45500        9.23800        0.95100
C         -0.29900       10.57200        1.02700
C          0.72000       11.20100        0.39400
C          1.68100       10.42900       -0.16400
C          1.53000        9.09100       -0.23300
C          0.68700       12.66600        0.22400
H         -1.07700       11.14600        1.52200
H         -1.35400        8.81100        1.38700
H          2.27500        8.51600       -0.77600
H          2.54200       10.87700       -0.65000
N         -2.97900       -0.25400       -0.10800
C         -0.47800       13.25600       -0.15000
C         -0.58200       14.58900       -0.29400
C          0.49600       15.36900       -0.08700
C          1.68000       14.79900        0.22200
C          1.77300       13.46100        0.37700
C          0.41000       16.85000       -0.17000
H         -1.54400       15.01400       -0.56900
H         -1.36800       12.65800       -0.33600
H          2.73700       13.03300        0.64000
H          2.56500       15.41500        0.36600
O         -0.85900       17.30300       -0.21000
O          1.34600       17.63000       -0.14500
H         -0.76400       18.27700       -0.18400
