
 OpenBabel11042013073D

 35 36  0  0  1  0  0  0  0  0999 V2000
    1.1530    0.0830   -1.0280 O   0  0  0  0  0  0  0  0  0  0  0  0
    0.2380    0.7150   -0.2590 C   0  0  0  0  0  0  0  0  0  0  0  0
   -0.5360    0.0840    0.4450 O   0  0  0  0  0  0  0  0  0  0  0  0
    0.2650    2.2230   -0.3330 C   0  0  1  0  0  0  0  0  0  0  0  0
    1.6230    0.6560   -1.6540 H   0  0  0  0  0  0  0  0  0  0  0  0
   -0.9460    2.8320   -0.3350 C   0  0  2  0  0  0  0  0  0  0  0  0
   -1.0480    4.1780   -0.2700 C   0  0  2  0  0  0  0  0  0  0  0  0
    0.0580    4.9540   -0.1870 C   0  0  2  0  0  0  0  0  0  0  0  0
    1.2630    4.3410   -0.2460 C   0  0  0  0  0  0  0  0  0  0  0  0
    1.3950    2.9860   -0.2940 C   0  0  1  0  0  0  0  0  0  0  0  0
   -0.1140    6.4420    0.0900 C   0  0  1  0  0  0  0  0  0  0  0  0
   -2.3360    4.7180   -0.2030 O   0  0  0  0  0  0  0  0  0  0  0  0
   -2.1930    2.1140   -0.3730 N   0  0  0  0  0  0  0  0  0  0  0  0
    2.8170    2.4370   -0.1990 C   0  0  0  0  0  0  0  0  0  0  0  0
    2.1630    4.9490   -0.1810 H   0  0  0  0  0  0  0  0  0  0  0  0
   -2.3600    5.6590   -0.4570 H   0  0  0  0  0  0  0  0  0  0  0  0
    0.9790    7.4800   -0.0360 C   0  0  0  0  0  0  0  0  0  0  0  0
    0.1370    8.6360   -0.2700 N   0  0  0  0  0  0  0  0  0  0  0  0
   -1.0720    8.2940   -0.7870 N   0  0  0  0  0  0  0  0  0  0  0  0
   -1.1810    7.0440   -0.7590 N   0  0  0  0  0  0  0  0  0  0  0  0
    0.4310    9.9290    0.0480 C   0  0  0  0  0  0  0  0  0  0  0  0
    1.6230    7.3460   -0.9130 H   0  0  0  0  0  0  0  0  0  0  0  0
    1.5880    7.5980    0.8650 H   0  0  0  0  0  0  0  0  0  0  0  0
   -0.4780    6.4960    1.1290 H   0  0  0  0  0  0  0  0  0  0  0  0
    3.0740    1.6680    1.0900 C   0  0  0  0  0  0  0  0  0  0  0  0
    2.8620    2.2950    1.9620 H   0  0  0  0  0  0  0  0  0  0  0  0
    2.4620    0.7660    1.1680 H   0  0  0  0  0  0  0  0  0  0  0  0
    4.1220    1.3560    1.1410 H   0  0  0  0  0  0  0  0  0  0  0  0
    3.5430    3.2610   -0.2310 H   0  0  0  0  0  0  0  0  0  0  0  0
    3.0720    1.8330   -1.0780 H   0  0  0  0  0  0  0  0  0  0  0  0
   -2.1900    1.2750    0.2110 H   0  0  0  0  0  0  0  0  0  0  0  0
   -2.9780    2.7210   -0.1310 H   0  0  0  0  0  0  0  0  0  0  0  0
   -0.5910   10.7890   -0.1440 O   0  0  0  0  0  0  0  0  0  0  0  0
    1.4840   10.3440    0.5090 O   0  0  0  0  0  0  0  0  0  0  0  0
   -0.2400   11.6520    0.1570 H   0  0  0  0  0  0  0  0  0  0  0  0
  1  5  1  0  0  0  0
  2  1  1  0  0  0  0
  3  2  2  0  0  0  0
  4  2  1  1  0  0  0
  4 10  5  0  0  0  0
  6  4  5  0  0  0  0
  6  7  5  0  0  0  0
  6 13  1  1  0  0  0
  7 12  1  1  0  0  0
  8  7  5  0  0  0  0
  8  9  5  1  0  0  0
  8 11  1  0  0  0  0
  9 15  1  0  0  0  0
 10  9  5  0  0  0  0
 10 14  1  1  0  0  0
 11 20  1  0  0  0  0
 11 24  1  1  0  0  0
 12 16  1  0  0  0  0
 13 31  1  0  0  0  0
 13 32  1  0  0  0  0
 14 29  1  0  0  0  0
 14 30  1  0  0  0  0
 17 11  1  0  0  0  0
 17 22  1  0  0  0  0
 17 23  1  0  0  0  0
 18 17  1  0  0  0  0
 19 18  1  0  0  0  0
 20 19  2  0  0  0  0
 21 18  1  0  0  0  0
 21 34  2  0  0  0  0
 25 26  1  0  0  0  0
 25 27  1  0  0  0  0
 25 28  1  0  0  0  0
 25 14  1  0  0  0  0
 33 21  1  0  0  0  0
 35 33  1  0  0  0  0
M  END
