
 OpenBabel11042013073D

 33 34  0  0  1  0  0  0  0  0999 V2000
    0.8240    0.5030   -0.0420 O   0  0  0  0  0  0  0  0  0  0  0  0
   -0.2380    1.3310   -0.0700 C   0  0  0  0  0  0  0  0  0  0  0  0
   -1.3700    0.8630   -0.0520 O   0  0  0  0  0  0  0  0  0  0  0  0
    0.0440    2.8150   -0.0910 C   0  0  1  0  0  0  0  0  0  0  0  0
    1.6920    0.9440   -0.0460 H   0  0  0  0  0  0  0  0  0  0  0  0
   -1.0880    3.5600   -0.0970 C   0  0  0  0  0  0  0  0  0  0  0  0
   -1.0440    4.9040   -0.0440 C   0  0  0  0  0  0  0  0  0  0  0  0
    0.1270    5.5810    0.0210 C   0  0  2  0  0  0  0  0  0  0  0  0
    1.2500    4.8320   -0.0250 C   0  0  0  0  0  0  0  0  0  0  0  0
    1.2340    3.4730   -0.0770 C   0  0  1  0  0  0  0  0  0  0  0  0
    0.1480    7.1050    0.2630 C   0  0  1  0  0  0  0  0  0  0  0  0
   -1.9990    5.4260   -0.0100 H   0  0  0  0  0  0  0  0  0  0  0  0
   -2.0720    3.0870   -0.1140 H   0  0  0  0  0  0  0  0  0  0  0  0
    2.9240    2.6210   -0.0690 Br  0  0  0  0  0  0  0  0  0  0  0  0
    2.2130    5.3410    0.0250 H   0  0  0  0  0  0  0  0  0  0  0  0
    1.3250    8.0360   -0.1080 C   0  0  0  0  0  0  0  0  0  0  0  0
    0.7480    9.3920    0.3300 C   0  0  2  0  0  0  0  0  0  0  0  0
   -0.7080    9.2620    0.1180 N   0  0  0  0  0  0  0  0  0  0  0  0
   -0.9460    7.8910   -0.3340 N   0  0  0  0  0  0  0  0  0  0  0  0
    1.2470   10.6730   -0.2040 C   0  0  0  0  0  0  0  0  0  0  0  0
   -1.8490    7.5620    0.0110 H   0  0  0  0  0  0  0  0  0  0  0  0
   -1.0280    9.9440   -0.5750 H   0  0  0  0  0  0  0  0  0  0  0  0
    2.2290    7.7850    0.4590 H   0  0  0  0  0  0  0  0  0  0  0  0
    0.9070    9.4550    1.4150 H   0  0  0  0  0  0  0  0  0  0  0  0
    1.5650    7.9940   -1.1790 H   0  0  0  0  0  0  0  0  0  0  0  0
    0.0330    7.1670    1.3580 H   0  0  0  0  0  0  0  0  0  0  0  0
    1.4840   11.8460   -0.3920 C   0  0  0  0  0  0  0  0  0  0  0  0
    1.7340   13.1690   -0.4720 N   0  0  0  0  0  0  0  0  0  0  0  0
    0.7190   13.8370   -0.1630 N   0  0  0  0  0  0  0  0  0  0  0  0
    0.9940   15.1850   -0.0590 C   0  0  0  0  0  0  0  0  0  0  0  0
   -0.1350   15.9280   -0.0500 O   0  0  0  0  0  0  0  0  0  0  0  0
    2.0730   15.7520    0.0590 O   0  0  0  0  0  0  0  0  0  0  0  0
    0.2070   16.8430    0.0600 H   0  0  0  0  0  0  0  0  0  0  0  0
  1  5  1  0  0  0  0
  2  1  1  0  0  0  0
  3  2  2  0  0  0  0
  4  2  1  1  0  0  0
  4 10  5  0  0  0  0
  6  4  5  0  0  0  0
  6  7  5  0  0  0  0
  6 13  1  0  0  0  0
  7 12  1  0  0  0  0
  8  7  5  1  0  0  0
  8 11  1  0  0  0  0
  9  8  5  0  0  0  0
  9 15  1  0  0  0  0
 10  9  5  0  0  0  0
 10 14  1  1  0  0  0
 11 19  1  0  0  0  0
 11 26  1  1  0  0  0
 16 11  1  0  0  0  0
 16 23  1  0  0  0  0
 16 25  1  0  0  0  0
 17 16  1  0  0  0  0
 17 24  1  1  0  0  0
 18 17  1  0  0  0  0
 19 18  1  0  0  0  0
 20 17  1  0  0  0  0
 21 19  1  0  0  0  0
 22 18  1  0  0  0  0
 27 20  3  0  0  0  0
 28 27  1  0  0  0  0
 29 28  2  0  0  0  0
 30 29  1  0  0  0  0
 30 32  2  0  0  0  0
 31 30  1  0  0  0  0
 33 31  1  0  0  0  0
M  END
