33

O          0.82400        0.50300       -0.04200
C         -0.23800        1.33100       -0.07000
O         -1.37000        0.86300       -0.05200
C          0.04400        2.81500       -0.09100
H          1.69200        0.94400       -0.04600
C         -1.08800        3.56000       -0.09700
C         -1.04400        4.90400       -0.04400
C          0.12700        5.58100        0.02100
C          1.25000        4.83200       -0.02500
C          1.23400        3.47300       -0.07700
C          0.14800        7.10500        0.26300
H         -1.99900        5.42600       -0.01000
H         -2.07200        3.08700       -0.11400
Br         2.92400        2.62100       -0.06900
H          2.21300        5.34100        0.02500
C          1.32500        8.03600       -0.10800
C          0.74800        9.39200        0.33000
N         -0.70800        9.26200        0.11800
N         -0.94600        7.89100       -0.33400
C          1.24700       10.67300       -0.20400
H         -1.84900        7.56200        0.01100
H         -1.02800        9.94400       -0.57500
H          2.22900        7.78500        0.45900
H          0.90700        9.45500        1.41500
H          1.56500        7.99400       -1.17900
H          0.03300        7.16700        1.35800
C          1.48400       11.84600       -0.39200
N          1.73400       13.16900       -0.47200
N          0.71900       13.83700       -0.16300
C          0.99400       15.18500       -0.05900
O         -0.13500       15.92800       -0.05000
O          2.07300       15.75200        0.05900
H          0.20700       16.84300        0.06000
