
 OpenBabel11042013033D

 32 33  0  0  1  0  0  0  0  0999 V2000
    1.6150   -0.4460    0.1620 O   0  0  0  0  0  0  0  0  0  0  0  0
    0.4220    0.1820    0.2320 C   0  0  0  0  0  0  0  0  0  0  0  0
   -0.6090   -0.4480    0.4200 O   0  0  0  0  0  0  0  0  0  0  0  0
    0.4570    1.6690    0.0480 C   0  0  1  0  0  0  0  0  0  0  0  0
    2.3810    0.0880   -0.0960 H   0  0  0  0  0  0  0  0  0  0  0  0
   -0.7370    2.2970   -0.0410 C   0  0  0  0  0  0  0  0  0  0  0  0
   -0.8020    3.6330   -0.2190 C   0  0  2  0  0  0  0  0  0  0  0  0
    0.3330    4.3670   -0.3090 C   0  0  2  0  0  0  0  0  0  0  0  0
    1.5200    3.7320   -0.2020 C   0  0  0  0  0  0  0  0  0  0  0  0
    1.5890    2.4040   -0.0150 C   0  0  0  0  0  0  0  0  0  0  0  0
    0.3320    5.7350   -0.4520 N   0  0  0  0  0  0  0  0  0  0  0  0
   -2.1020    4.2500   -0.2970 N   0  0  0  0  0  0  0  0  0  0  0  0
   -1.6660    1.7270    0.0290 H   0  0  0  0  0  0  0  0  0  0  0  0
    2.5830    1.9850    0.0900 H   0  0  0  0  0  0  0  0  0  0  0  0
    2.4350    4.3190   -0.2480 H   0  0  0  0  0  0  0  0  0  0  0  0
    0.2320    6.3130    0.6500 N   0  0  0  0  0  0  0  0  0  0  0  0
    0.3900    7.6760    0.5320 N   0  0  0  0  0  0  0  0  0  0  0  0
   -0.6040    8.2040   -0.0060 N   0  0  0  0  0  0  0  0  0  0  0  0
   -0.6680    9.6250    0.3140 C   0  0  1  0  0  0  0  0  0  0  0  0
    0.5770   10.3940   -0.0310 C   0  0  0  0  0  0  0  0  0  0  0  0
   -0.0310   11.6630   -0.3130 N   0  0  0  0  0  0  0  0  0  0  0  0
   -1.3430   11.5330   -0.6630 N   0  0  0  0  0  0  0  0  0  0  0  0
   -1.7020   10.3380   -0.4670 N   0  0  0  0  0  0  0  0  0  0  0  0
    0.5520   12.8740   -0.0760 C   0  0  0  0  0  0  0  0  0  0  0  0
    1.3080   10.4440    0.7810 H   0  0  0  0  0  0  0  0  0  0  0  0
    1.0680   10.0400   -0.9450 H   0  0  0  0  0  0  0  0  0  0  0  0
   -0.9180    9.7400    1.3770 H   0  0  0  0  0  0  0  0  0  0  0  0
   -2.0300    5.1430   -0.7930 H   0  0  0  0  0  0  0  0  0  0  0  0
   -2.3690    4.5610    0.6420 H   0  0  0  0  0  0  0  0  0  0  0  0
   -0.2670   13.9230   -0.2870 O   0  0  0  0  0  0  0  0  0  0  0  0
    1.6890   13.0610    0.3310 O   0  0  0  0  0  0  0  0  0  0  0  0
    0.2720   14.6980   -0.0360 H   0  0  0  0  0  0  0  0  0  0  0  0
  1  5  1  0  0  0  0
  2  1  1  0  0  0  0
  3  2  2  0  0  0  0
  4  2  1  1  0  0  0
  4 10  5  0  0  0  0
  6  4  5  0  0  0  0
  6  7  5  0  0  0  0
  6 13  1  0  0  0  0
  7 12  1  1  0  0  0
  8  7  5  0  0  0  0
  8 11  1  1  0  0  0
  9  8  5  0  0  0  0
  9 15  1  0  0  0  0
 10  9  5  0  0  0  0
 10 14  1  0  0  0  0
 12 28  1  0  0  0  0
 12 29  1  0  0  0  0
 16 11  2  0  0  0  0
 17 16  1  0  0  0  0
 18 17  2  0  0  0  0
 19 18  1  0  0  0  0
 19 23  1  0  0  0  0
 19 27  1  1  0  0  0
 20 19  1  0  0  0  0
 20 25  1  0  0  0  0
 20 26  1  0  0  0  0
 21 20  1  0  0  0  0
 22 21  1  0  0  0  0
 23 22  2  0  0  0  0
 24 21  1  0  0  0  0
 24 31  2  0  0  0  0
 30 24  1  0  0  0  0
 32 30  1  0  0  0  0
M  END
