32

O          1.61500       -0.44600        0.16200
C          0.42200        0.18200        0.23200
O         -0.60900       -0.44800        0.42000
C          0.45700        1.66900        0.04800
H          2.38100        0.08800       -0.09600
C         -0.73700        2.29700       -0.04100
C         -0.80200        3.63300       -0.21900
C          0.33300        4.36700       -0.30900
C          1.52000        3.73200       -0.20200
C          1.58900        2.40400       -0.01500
N          0.33200        5.73500       -0.45200
N         -2.10200        4.25000       -0.29700
H         -1.66600        1.72700        0.02900
H          2.58300        1.98500        0.09000
H          2.43500        4.31900       -0.24800
N          0.23200        6.31300        0.65000
N          0.39000        7.67600        0.53200
N         -0.60400        8.20400       -0.00600
C         -0.66800        9.62500        0.31400
C          0.57700       10.39400       -0.03100
N         -0.03100       11.66300       -0.31300
N         -1.34300       11.53300       -0.66300
N         -1.70200       10.33800       -0.46700
C          0.55200       12.87400       -0.07600
H          1.30800       10.44400        0.78100
H          1.06800       10.04000       -0.94500
H         -0.91800        9.74000        1.37700
H         -2.03000        5.14300       -0.79300
H         -2.36900        4.56100        0.64200
O         -0.26700       13.92300       -0.28700
O          1.68900       13.06100        0.33100
H          0.27200       14.69800       -0.03600
