30

O          1.37900       -0.00100       -0.05500
C          0.17100        0.60500       -0.09500
O         -0.84300       -0.06400       -0.21100
C          0.19100        2.09400       -0.00500
H          2.16400        0.54800        0.09000
C         -1.00300        2.73000        0.07000
C         -1.07200        4.07600        0.12100
C          0.07200        4.79000        0.10500
C          1.26300        4.17200        0.04700
C          1.32700        2.82900       -0.01800
C          0.08300        6.20100        0.12200
Cl        -2.63300        4.84700        0.18400
F         -2.16200        2.03000        0.08600
H          2.32200        2.41300       -0.09200
H          2.18300        4.75600        0.03600
C          0.09700        7.39400        0.09100
C          0.04900        8.79800        0.03300
C         -1.15100        9.40000       -0.00100
C         -1.22100       10.74100       -0.03500
C         -0.08500       11.47200       -0.03500
C          1.12000       10.86000       -0.01900
C          1.18600        9.51700        0.01400
C         -0.12000       12.95200       -0.03900
H         -2.20200       11.21100       -0.05300
H         -2.06900        8.81400        0.00500
H          2.15500        9.02200        0.03300
H          2.04300       11.43500       -0.02400
O         -1.37000       13.44900       -0.01800
O          0.84600       13.69500       -0.04100
H         -1.23300       14.41700        0.00200
