42

O          1.46700       -1.37900       -0.07500
C          0.34100       -0.67000        0.13800
O         -0.71500       -1.22100        0.41400
C          0.48500        0.81400        0.02400
H          2.22100       -0.87300       -0.41600
C         -0.67000        1.49700       -0.08800
C         -0.67500        2.83900       -0.10400
C          0.46500        3.57100        0.02000
C          1.62400        2.86500        0.06400
C          1.64200        1.51200        0.06900
C          0.40700        5.06500        0.11000
H         -1.65300        3.29900       -0.19700
H         -1.62600        0.97800       -0.14200
H          2.60500        1.02600        0.15200
H          2.58500        3.36500        0.12300
C         -0.77200        5.69300        0.34500
C         -0.91500        7.03200        0.36200
C          0.16900        7.81400        0.14200
C          1.38000        7.21700        0.02600
C          1.49400        5.87100        0.00900
C         -0.06100        9.28900       -0.06700
C         -3.18900        7.43200       -0.23300
H         -1.68200        5.13700        0.53400
H          2.49400        5.46800       -0.10600
H          2.28800        7.80500       -0.08900
C          1.07400       10.23100       -0.37800
N          0.43600       11.43600        0.05300
N         -0.50900       11.20300        1.01400
N         -0.71400        9.96400        1.08100
N          0.87300       12.66400       -0.26200
H          1.95200       10.09300        0.26200
H          1.35700       10.25200       -1.43300
H         -0.76200        9.35800       -0.91500
N          0.64600       13.45300        0.67900
C          0.04900       14.59600        0.25100
H         -4.12300        7.40700        0.33800
H         -3.11800        6.51200       -0.82100
H         -3.22200        8.29900       -0.89900
O         -2.13600        7.60200        0.69700
O         -1.29100       14.43800        0.14800
O          0.56100       15.68700        0.03900
H         -1.60400       15.33600       -0.08600
