28

O          1.49100        0.06600        0.15100
C          0.25900        0.61900        0.10100
O         -0.72600       -0.10000        0.18400
C          0.22000        2.11600       -0.01000
H          2.24600        0.68000        0.10200
C         -0.97900        2.74200       -0.06100
C         -1.01600        4.08400       -0.03400
C          0.09600        4.85600        0.02900
C          1.30000        4.22700       -0.04900
C          1.34000        2.87300       -0.04100
C         -0.16100        6.33300        0.29100
H         -1.99700        4.55800       -0.01700
O         -2.17500        2.05500       -0.09300
F          2.55300        2.27000       -0.01600
C          2.54800        4.93000       -0.10200
H         -2.95100        2.60500       -0.29200
C          0.84100        7.44000        0.09200
N         -0.08100        8.52700       -0.11500
N         -1.29900        8.09800       -0.54300
N         -1.33300        6.84300       -0.47400
C          0.21900        9.85000       -0.00200
H          1.47900        7.61200        0.96400
H          1.44300        7.34500       -0.81500
H         -0.46100        6.36600        1.35200
N          3.54300        5.52300       -0.19500
O         -0.82800       10.66500       -0.24800
O          1.30000       10.32500        0.31000
H         -0.46200       11.56200       -0.12400
