42

O          1.15200       -1.42200       -0.00000
C         -0.00100       -0.72400        0.00100
O         -1.07400       -1.31100        0.00200
C          0.11500        0.76800       -0.00100
H          1.95500       -0.86900       -0.00100
C         -1.08200        1.40300       -0.00800
C         -1.16600        2.74400       -0.01000
C         -0.05500        3.51800       -0.00600
C          1.13100        2.85900        0.00200
C          1.24300        1.51500        0.00300
C         -0.10600        4.99900       -0.00600
H         -2.16400        3.17200       -0.01700
H         -2.01800        0.84500       -0.01100
Br         3.01800        0.85900        0.01100
H          2.06600        3.40600        0.00800
C         -1.26500        5.70500        0.00000
C         -1.27600        7.04900       -0.00000
C         -0.12600        7.77300       -0.01000
C          1.02400        7.06500       -0.01600
C          1.03200        5.73000       -0.01500
C         -0.09500        9.25500       -0.00600
H         -2.25100        7.52100        0.00300
H         -2.23600        5.22000        0.00500
H          2.02100        5.29800       -0.02500
H          2.00400        7.52700       -0.02400
C         -1.22700        9.99700       -0.00400
C         -1.18800       11.34100       -0.00100
C         -0.01200       12.00200        0.00300
C          1.12400       11.27900        0.00200
C          1.07800        9.93800       -0.00100
C          0.09800       13.44800        0.00600
H         -2.14000       11.85900        0.00200
H         -2.21400        9.54800       -0.00600
H          2.04500        9.45200        0.00000
H          2.10000       11.75600        0.00500
C         -0.92900       14.30400        0.00300
C         -0.65100       15.73800        0.00100
H         -1.96600       14.00300       -0.00100
H          1.11500       13.84400        0.00700
O         -1.80600       16.41600       -0.00100
O          0.43400       16.28400        0.00000
H         -1.51800       17.35300       -0.00200
