
 OpenBabel11042013073D

 45 48  0  0  1  0  0  0  0  0999 V2000
    1.3720   -1.0560    0.4040 O   0  0  0  0  0  0  0  0  0  0  0  0
    0.2000   -0.4580    0.7070 C   0  0  0  0  0  0  0  0  0  0  0  0
   -0.7770   -1.0840    1.0790 O   0  0  0  0  0  0  0  0  0  0  0  0
    0.2010    1.0130    0.4510 C   0  0  2  0  0  0  0  0  0  0  0  0
    2.0010   -0.4970   -0.0870 H   0  0  0  0  0  0  0  0  0  0  0  0
   -0.9530    1.5680    0.0370 C   0  0  0  0  0  0  0  0  0  0  0  0
   -0.9850    2.8730   -0.3200 C   0  0  1  0  0  0  0  0  0  0  0  0
    0.1160    3.6430   -0.2920 C   0  0  1  0  0  0  0  0  0  0  0  0
    1.2530    3.0920    0.2070 C   0  0  0  0  0  0  0  0  0  0  0  0
    1.2910    1.7920    0.5840 C   0  0  0  0  0  0  0  0  0  0  0  0
    0.1640    5.0660   -0.8780 C   0  0  2  0  0  0  0  0  0  0  0  0
   -2.1670    3.3450   -0.7720 F   0  0  0  0  0  0  0  0  0  0  0  0
   -1.8680    0.9760   -0.0450 H   0  0  0  0  0  0  0  0  0  0  0  0
    2.2320    1.3870    0.9600 H   0  0  0  0  0  0  0  0  0  0  0  0
    2.1680    3.6710    0.2840 H   0  0  0  0  0  0  0  0  0  0  0  0
    0.9050    6.1820   -0.1450 C   0  0  0  0  0  0  0  0  0  0  0  0
    0.0350    7.3330   -0.3730 N   0  0  0  0  0  0  0  0  0  0  0  0
   -1.1650    6.8960   -0.8860 N   0  0  0  0  0  0  0  0  0  0  0  0
   -1.1620    5.6640   -1.0940 N   0  0  0  0  0  0  0  0  0  0  0  0
   -0.0580    8.4160    0.6290 C   0  0  1  0  0  0  0  0  0  0  0  0
    1.8860    6.3800   -0.5900 H   0  0  0  0  0  0  0  0  0  0  0  0
    1.0080    5.9920    0.9270 H   0  0  0  0  0  0  0  0  0  0  0  0
    0.6030    4.9550   -1.8790 H   0  0  0  0  0  0  0  0  0  0  0  0
    0.9010    9.4830    0.3860 O   0  0  0  0  0  0  0  0  0  0  0  0
   -1.2580   10.3900   -0.0400 C   0  0  0  0  0  0  0  0  0  0  0  0
   -1.4270    9.0810    0.6730 C   0  0  0  0  0  0  0  0  0  0  0  0
    0.6940   11.9660   -0.3010 C   0  0  2  0  0  0  0  0  0  0  0  0
   -2.2640    8.5190    0.2520 H   0  0  0  0  0  0  0  0  0  0  0  0
   -1.6160   11.1600    0.6490 H   0  0  0  0  0  0  0  0  0  0  0  0
   -1.8680   10.4880   -0.9430 H   0  0  0  0  0  0  0  0  0  0  0  0
   -1.6970    9.2660    1.7190 H   0  0  0  0  0  0  0  0  0  0  0  0
    0.3780   10.1830   -1.4200 H   0  0  0  0  0  0  0  0  0  0  0  0
    0.2280   10.4970   -0.3780 C   0  0  1  0  0  0  0  0  0  0  0  0
    0.1700    7.9720    1.6040 H   0  0  0  0  0  0  0  0  0  0  0  0
    2.1010   12.4150   -0.0140 C   0  0  0  0  0  0  0  0  0  0  0  0
    1.7670   13.7880    0.3760 N   0  0  0  0  0  0  0  0  0  0  0  0
    0.5320   13.8350    0.9590 N   0  0  0  0  0  0  0  0  0  0  0  0
   -0.0420   12.7410    0.7470 N   0  0  0  0  0  0  0  0  0  0  0  0
    2.2300   14.9060   -0.2830 C   0  0  0  0  0  0  0  0  0  0  0  0
    2.7830   12.3840   -0.8660 H   0  0  0  0  0  0  0  0  0  0  0  0
    2.5430   11.9280    0.8620 H   0  0  0  0  0  0  0  0  0  0  0  0
    0.3890   12.4160   -1.2600 H   0  0  0  0  0  0  0  0  0  0  0  0
    1.4140   15.9760   -0.1180 O   0  0  0  0  0  0  0  0  0  0  0  0
    3.2170   14.9520   -1.0010 O   0  0  0  0  0  0  0  0  0  0  0  0
    0.6510   15.6750    0.4140 H   0  0  0  0  0  0  0  0  0  0  0  0
  1  5  1  0  0  0  0
  2  1  1  0  0  0  0
  3  2  2  0  0  0  0
  4  2  1  6  0  0  0
  4 10  5  0  0  0  0
  6  4  5  0  0  0  0
  6  7  5  0  0  0  0
  6 13  1  0  0  0  0
  7 12  1  6  0  0  0
  8  7  5  0  0  0  0
  8  9  5  6  0  0  0
  8 11  1  0  0  0  0
  9 15  1  0  0  0  0
 10  9  5  0  0  0  0
 10 14  1  0  0  0  0
 11 19  1  0  0  0  0
 11 23  1  6  0  0  0
 16 11  1  0  0  0  0
 16 21  1  0  0  0  0
 16 22  1  0  0  0  0
 17 16  1  0  0  0  0
 18 17  1  0  0  0  0
 19 18  2  0  0  0  0
 20 17  1  0  0  0  0
 20 26  1  0  0  0  0
 20 34  1  1  0  0  0
 24 20  1  0  0  0  0
 25 33  1  0  0  0  0
 25 30  1  0  0  0  0
 26 25  1  0  0  0  0
 26 31  1  0  0  0  0
 27 33  1  0  0  0  0
 27 38  1  0  0  0  0
 27 42  1  6  0  0  0
 28 26  1  0  0  0  0
 29 25  1  0  0  0  0
 33 24  1  0  0  0  0
 33 32  1  6  0  0  0
 35 27  1  0  0  0  0
 35 40  1  0  0  0  0
 35 41  1  0  0  0  0
 36 35  1  0  0  0  0
 37 36  1  0  0  0  0
 38 37  2  0  0  0  0
 39 36  1  0  0  0  0
 39 44  2  0  0  0  0
 43 39  1  0  0  0  0
 45 43  1  0  0  0  0
M  END
