45

O          1.37200       -1.05600        0.40400
C          0.20000       -0.45800        0.70700
O         -0.77700       -1.08400        1.07900
C          0.20100        1.01300        0.45100
H          2.00100       -0.49700       -0.08700
C         -0.95300        1.56800        0.03700
C         -0.98500        2.87300       -0.32000
C          0.11600        3.64300       -0.29200
C          1.25300        3.09200        0.20700
C          1.29100        1.79200        0.58400
C          0.16400        5.06600       -0.87800
F         -2.16700        3.34500       -0.77200
H         -1.86800        0.97600       -0.04500
H          2.23200        1.38700        0.96000
H          2.16800        3.67100        0.28400
C          0.90500        6.18200       -0.14500
N          0.03500        7.33300       -0.37300
N         -1.16500        6.89600       -0.88600
N         -1.16200        5.66400       -1.09400
C         -0.05800        8.41600        0.62900
H          1.88600        6.38000       -0.59000
H          1.00800        5.99200        0.92700
H          0.60300        4.95500       -1.87900
O          0.90100        9.48300        0.38600
C         -1.25800       10.39000       -0.04000
C         -1.42700        9.08100        0.67300
C          0.69400       11.96600       -0.30100
H         -2.26400        8.51900        0.25200
H         -1.61600       11.16000        0.64900
H         -1.86800       10.48800       -0.94300
H         -1.69700        9.26600        1.71900
H          0.37800       10.18300       -1.42000
C          0.22800       10.49700       -0.37800
H          0.17000        7.97200        1.60400
C          2.10100       12.41500       -0.01400
N          1.76700       13.78800        0.37600
N          0.53200       13.83500        0.95900
N         -0.04200       12.74100        0.74700
C          2.23000       14.90600       -0.28300
H          2.78300       12.38400       -0.86600
H          2.54300       11.92800        0.86200
H          0.38900       12.41600       -1.26000
O          1.41400       15.97600       -0.11800
O          3.21700       14.95200       -1.00100
H          0.65100       15.67500        0.41400
