34

O          1.37000        0.10400       -0.15300
C          0.13100        0.62400       -0.08200
O         -0.84900       -0.10700       -0.14700
C          0.02700        2.11500        0.06400
H          2.09600        0.75000       -0.07600
C         -1.24800        2.57600       -0.01300
C         -1.52800        3.88500        0.11200
C         -0.53700        4.76800        0.32100
C          0.73500        4.32700        0.39200
C          1.02400        3.01300        0.26200
C         -0.82700        6.15400        0.43300
H         -2.55900        4.22400        0.04000
H         -2.08300        1.89700       -0.18000
Cl         2.70700        2.58700        0.36500
H          1.53900        5.04300        0.55500
C         -0.95100        7.34700        0.44700
C         -0.84900        8.76400        0.33700
C         -1.94500        9.52500        0.12700
C         -1.82400       10.86000       -0.02300
C         -0.60400       11.43600        0.03400
C          0.48800       10.67600        0.25300
C          0.37800        9.34100        0.40200
C         -0.38700       12.89600       -0.12900
H         -2.71600       11.45900       -0.19300
H         -2.93100        9.07000        0.07200
C          2.11400        8.03700       -0.47500
H          1.47600       11.12700        0.31600
H          1.40200        7.86300       -1.29100
H          2.55100        7.07500       -0.19500
H          2.91900        8.69200       -0.81700
O          1.51500        8.59700        0.69200
O         -1.52400       13.61300       -0.10500
O          0.69100       13.45100       -0.25900
H         -1.20600       14.53600       -0.19000
