
 OpenBabel11042013073D

 34 35  0  0  1  0  0  0  0  0999 V2000
    1.3700    0.1040   -0.1530 O   0  0  0  0  0  0  0  0  0  0  0  0
    0.1310    0.6240   -0.0820 C   0  0  0  0  0  0  0  0  0  0  0  0
   -0.8490   -0.1070   -0.1470 O   0  0  0  0  0  0  0  0  0  0  0  0
    0.0270    2.1150    0.0640 C   0  0  1  0  0  0  0  0  0  0  0  0
    2.0960    0.7500   -0.0760 H   0  0  0  0  0  0  0  0  0  0  0  0
   -1.2480    2.5760   -0.0130 C   0  0  0  0  0  0  0  0  0  0  0  0
   -1.5280    3.8850    0.1120 C   0  0  0  0  0  0  0  0  0  0  0  0
   -0.5370    4.7680    0.3210 C   0  0  1  0  0  0  0  0  0  0  0  0
    0.7350    4.3270    0.3920 C   0  0  0  0  0  0  0  0  0  0  0  0
    1.0240    3.0130    0.2620 C   0  0  2  0  0  0  0  0  0  0  0  0
   -0.8270    6.1540    0.4330 C   0  0  0  0  0  0  0  0  0  0  0  0
   -2.5590    4.2240    0.0400 H   0  0  0  0  0  0  0  0  0  0  0  0
   -2.0830    1.8970   -0.1800 H   0  0  0  0  0  0  0  0  0  0  0  0
    2.7070    2.5870    0.3650 Cl  0  0  0  0  0  0  0  0  0  0  0  0
    1.5390    5.0430    0.5550 H   0  0  0  0  0  0  0  0  0  0  0  0
   -0.9510    7.3470    0.4470 C   0  0  0  0  0  0  0  0  0  0  0  0
   -0.8490    8.7640    0.3370 C   0  0  2  0  0  0  0  0  0  0  0  0
   -1.9450    9.5250    0.1270 C   0  0  0  0  0  0  0  0  0  0  0  0
   -1.8240   10.8600   -0.0230 C   0  0  0  0  0  0  0  0  0  0  0  0
   -0.6040   11.4360    0.0340 C   0  0  2  0  0  0  0  0  0  0  0  0
    0.4880   10.6760    0.2530 C   0  0  0  0  0  0  0  0  0  0  0  0
    0.3780    9.3410    0.4020 C   0  0  1  0  0  0  0  0  0  0  0  0
   -0.3870   12.8960   -0.1290 C   0  0  0  0  0  0  0  0  0  0  0  0
   -2.7160   11.4590   -0.1930 H   0  0  0  0  0  0  0  0  0  0  0  0
   -2.9310    9.0700    0.0720 H   0  0  0  0  0  0  0  0  0  0  0  0
    2.1140    8.0370   -0.4750 C   0  0  0  0  0  0  0  0  0  0  0  0
    1.4760   11.1270    0.3160 H   0  0  0  0  0  0  0  0  0  0  0  0
    1.4020    7.8630   -1.2910 H   0  0  0  0  0  0  0  0  0  0  0  0
    2.5510    7.0750   -0.1950 H   0  0  0  0  0  0  0  0  0  0  0  0
    2.9190    8.6920   -0.8170 H   0  0  0  0  0  0  0  0  0  0  0  0
    1.5150    8.5970    0.6920 O   0  0  0  0  0  0  0  0  0  0  0  0
   -1.5240   13.6130   -0.1050 O   0  0  0  0  0  0  0  0  0  0  0  0
    0.6910   13.4510   -0.2590 O   0  0  0  0  0  0  0  0  0  0  0  0
   -1.2060   14.5360   -0.1900 H   0  0  0  0  0  0  0  0  0  0  0  0
  1  5  1  0  0  0  0
  2  1  1  0  0  0  0
  3  2  2  0  0  0  0
  4  2  1  1  0  0  0
  4 10  5  0  0  0  0
  6  4  5  0  0  0  0
  6  7  5  0  0  0  0
  6 13  1  0  0  0  0
  7 12  1  0  0  0  0
  8  7  5  0  0  0  0
  8 11  1  6  0  0  0
  9  8  5  0  0  0  0
  9 15  1  0  0  0  0
 10  9  5  0  0  0  0
 10 14  1  6  0  0  0
 16 11  3  0  0  0  0
 17 16  1  6  0  0  0
 17 22  5  0  0  0  0
 18 17  5  0  0  0  0
 18 19  5  0  0  0  0
 18 25  1  0  0  0  0
 19 24  1  0  0  0  0
 20 19  5  0  0  0  0
 20 23  1  1  0  0  0
 21 20  5  0  0  0  0
 21 27  1  0  0  0  0
 22 21  5  0  0  0  0
 22 31  1  1  0  0  0
 23 33  2  0  0  0  0
 26 28  1  0  0  0  0
 26 29  1  0  0  0  0
 26 30  1  0  0  0  0
 26 31  1  0  0  0  0
 32 23  1  0  0  0  0
 34 32  1  0  0  0  0
M  END
