
 OpenBabel11042013073D

 42 44  0  0  1  0  0  0  0  0999 V2000
    1.1450   -0.9200    0.0010 O   0  0  0  0  0  0  0  0  0  0  0  0
   -0.0060   -0.2190   -0.0010 C   0  0  0  0  0  0  0  0  0  0  0  0
   -1.0910   -0.7830   -0.0020 O   0  0  0  0  0  0  0  0  0  0  0  0
    0.1430    1.2650   -0.0000 C   0  0  2  0  0  0  0  0  0  0  0  0
    1.9670   -0.4070    0.0020 H   0  0  0  0  0  0  0  0  0  0  0  0
   -1.0040    1.9750   -0.0010 C   0  0  0  0  0  0  0  0  0  0  0  0
   -0.9760    3.3170    0.0000 C   0  0  0  0  0  0  0  0  0  0  0  0
    0.1930    4.0050    0.0010 C   0  0  1  0  0  0  0  0  0  0  0  0
    1.3320    3.2720    0.0010 C   0  0  0  0  0  0  0  0  0  0  0  0
    1.3150    1.9300    0.0000 C   0  0  0  0  0  0  0  0  0  0  0  0
    0.2360    5.4820    0.0020 C   0  0  2  0  0  0  0  0  0  0  0  0
   -1.9440    3.8080   -0.0000 H   0  0  0  0  0  0  0  0  0  0  0  0
   -1.9750    1.4820   -0.0010 H   0  0  0  0  0  0  0  0  0  0  0  0
    2.2850    1.4510    0.0000 H   0  0  0  0  0  0  0  0  0  0  0  0
    2.3130    3.7320    0.0010 H   0  0  0  0  0  0  0  0  0  0  0  0
   -0.9090    6.2080    0.0020 C   0  0  0  0  0  0  0  0  0  0  0  0
   -0.8830    7.5440    0.0020 C   0  0  0  0  0  0  0  0  0  0  0  0
    0.2970    8.1740    0.0010 C   0  0  1  0  0  0  0  0  0  0  0  0
    1.4540    7.5070    0.0020 C   0  0  0  0  0  0  0  0  0  0  0  0
    1.4140    6.1670    0.0020 C   0  0  0  0  0  0  0  0  0  0  0  0
    0.2550    9.5600   -0.0020 C   0  0  0  0  0  0  0  0  0  0  0  0
   -1.8160    8.1050    0.0010 H   0  0  0  0  0  0  0  0  0  0  0  0
   -1.9010    5.7750    0.0020 H   0  0  0  0  0  0  0  0  0  0  0  0
    2.3830    5.6850    0.0020 H   0  0  0  0  0  0  0  0  0  0  0  0
    2.4070    8.0320    0.0020 H   0  0  0  0  0  0  0  0  0  0  0  0
   -0.0920   10.6940   -0.0040 C   0  0  0  0  0  0  0  0  0  0  0  0
   -0.6450   12.0540   -0.0050 C   0  0  0  0  0  0  0  0  0  0  0  0
   -0.7860   13.2320   -0.0030 C   0  0  0  0  0  0  0  0  0  0  0  0
   -0.6260   14.6100   -0.0000 C   0  0  2  0  0  0  0  0  0  0  0  0
   -1.6910   15.4240    0.0010 C   0  0  0  0  0  0  0  0  0  0  0  0
   -1.4900   16.7500    0.0020 C   0  0  0  0  0  0  0  0  0  0  0  0
   -0.2310   17.2400    0.0020 C   0  0  1  0  0  0  0  0  0  0  0  0
    0.8360   16.4120    0.0010 C   0  0  0  0  0  0  0  0  0  0  0  0
    0.6350   15.0850    0.0000 C   0  0  0  0  0  0  0  0  0  0  0  0
    0.0200   18.6970    0.0020 C   0  0  0  0  0  0  0  0  0  0  0  0
   -2.3570   17.4010    0.0020 H   0  0  0  0  0  0  0  0  0  0  0  0
   -2.6990   15.0180    0.0000 H   0  0  0  0  0  0  0  0  0  0  0  0
    1.4860   14.4010   -0.0000 H   0  0  0  0  0  0  0  0  0  0  0  0
    1.8590   16.7850    0.0020 H   0  0  0  0  0  0  0  0  0  0  0  0
   -1.1200   19.4130    0.0010 O   0  0  0  0  0  0  0  0  0  0  0  0
    1.1080   19.2480    0.0010 O   0  0  0  0  0  0  0  0  0  0  0  0
   -0.8130   20.3400   -0.0000 H   0  0  0  0  0  0  0  0  0  0  0  0
  1  5  1  0  0  0  0
  2  1  1  0  0  0  0
  3  2  2  0  0  0  0
  4  2  1  6  0  0  0
  4 10  5  0  0  0  0
  6  4  5  0  0  0  0
  6  7  5  0  0  0  0
  6 13  1  0  0  0  0
  7 12  1  0  0  0  0
  8  7  5  6  0  0  0
  8 11  1  0  0  0  0
  9  8  5  0  0  0  0
  9 15  1  0  0  0  0
 10  9  5  0  0  0  0
 10 14  1  0  0  0  0
 11 16  5  6  0  0  0
 11 20  5  0  0  0  0
 16 17  5  0  0  0  0
 16 23  1  0  0  0  0
 17 22  1  0  0  0  0
 18 17  5  0  0  0  0
 18 21  1  6  0  0  0
 19 18  5  0  0  0  0
 19 25  1  0  0  0  0
 20 19  5  0  0  0  0
 20 24  1  0  0  0  0
 26 21  3  0  0  0  0
 27 26  1  0  0  0  0
 28 27  3  0  0  0  0
 29 28  1  6  0  0  0
 29 34  5  0  0  0  0
 30 29  5  0  0  0  0
 30 31  5  0  0  0  0
 30 37  1  0  0  0  0
 31 36  1  0  0  0  0
 32 31  5  0  0  0  0
 32 35  1  6  0  0  0
 33 32  5  0  0  0  0
 33 39  1  0  0  0  0
 34 33  5  0  0  0  0
 34 38  1  0  0  0  0
 35 41  2  0  0  0  0
 40 35  1  0  0  0  0
 42 40  1  0  0  0  0
M  END
