46

O          1.31500       -0.03600        0.31500
C          0.45200        0.57200       -0.53100
O         -0.24200       -0.05400       -1.31600
C          0.34500        2.04700       -0.31800
H          1.67300        0.55900        0.99700
C         -0.91400        2.50300       -0.25000
C         -1.20200        3.80500       -0.01900
C         -0.17900        4.70300        0.16400
C          1.09000        4.22100        0.04600
C          1.37900        2.91600       -0.18500
C         -0.36300        6.19900        0.56800
C         -2.68400        4.10500        0.05000
H         -1.72700        1.78700       -0.37200
C          2.81800        2.48100       -0.31500
H          1.91300        4.92400        0.17100
O          0.52800        7.17800       -0.06300
C         -1.46300        8.30800        0.55100
C         -1.71100        6.84300        0.34100
C          0.40400        9.71000       -0.49700
H         -2.49500        6.50100        1.01900
H         -1.78300        8.63700        1.54600
H         -2.06500        8.85600       -0.17900
H         -2.03000        6.70300       -0.69900
H          0.48500        8.63400        1.39500
C          0.04700        8.48700        0.39800
H         -0.12900        6.23500        1.64400
C          1.71900       10.40800       -0.15300
C          1.55000       11.82500       -0.70400
N          0.09700       11.98400       -0.93200
N         -0.53100       10.84500       -0.32300
C          2.07300       12.92400        0.22700
H         -1.41900       10.64400       -0.79200
H         -0.20200       12.86800       -0.49100
H          2.57500        9.90500       -0.61300
H          2.05700       11.94700       -1.66800
H          1.88300       10.43400        0.93300
H          0.42000        9.40000       -1.55300
H          3.20300        2.12900        0.65100
H          3.46000        3.30100       -0.65400
H          2.93200        1.67400       -1.04900
H         -2.96400        4.47700        1.03900
H         -3.30200        3.21400       -0.11200
H         -2.98100        4.80100       -0.73700
O          1.23100       13.97500        0.36100
O          3.15900       12.94400        0.78200
H          1.71600       14.60900        0.92900
