43

O          0.78600        0.29100        0.38700
C         -0.02200        1.21700       -0.14900
O         -1.08400        0.85500       -0.65100
C          0.39900        2.67100       -0.04100
H          1.43900        0.65400        0.99300
C         -0.72900        3.41600       -0.09700
C         -0.75200        4.76800       -0.13100
C          0.42800        5.45100       -0.09500
C          1.55700        4.71000        0.01400
C          1.59500        3.33900        0.03500
C          0.42400        6.98700       -0.31400
C         -3.15400        4.82600        0.11100
H         -1.68800        2.91400       -0.16600
C          3.04000        2.80600        0.05800
H          2.50500        5.25300        0.02100
C          1.52200        7.98600        0.10000
C          0.85400        9.30900       -0.35500
N         -0.57800        9.09600       -0.06600
N         -0.71700        7.70200        0.29400
C          1.35700       10.66600        0.07500
H         -1.57600        7.28800       -0.08700
H         -0.85600        9.66600        0.73700
H          2.46800        7.81500       -0.42500
H          0.95700        9.32600       -1.45100
H          1.71100        7.97300        1.18200
H          0.33200        7.07100       -1.41200
C          0.58100       11.77400        0.07300
C          1.11200       13.13400        0.25300
H         -0.47800       11.72800       -0.16400
H          2.42600       10.77400        0.24800
H         -3.47600        4.13000       -0.66800
H         -3.04900        4.32100        1.07700
H         -3.92300        5.59600        0.21800
O         -1.94000        5.46800       -0.27300
C          3.44100        1.34000        0.02300
H          4.51800        1.25700       -0.16900
H          2.93100        0.79000       -0.77000
H          3.29000        0.86000        0.99500
H          3.54800        3.25700       -0.80700
H          3.52900        3.22900        0.94800
O          0.12500       14.03500        0.12500
O          2.26900       13.45600        0.44000
H          0.56300       14.90500        0.19000
