
 OpenBabel11042013073D

 43 44  0  0  1  0  0  0  0  0999 V2000
    0.7860    0.2910    0.3870 O   0  0  0  0  0  0  0  0  0  0  0  0
   -0.0220    1.2170   -0.1490 C   0  0  0  0  0  0  0  0  0  0  0  0
   -1.0840    0.8550   -0.6510 O   0  0  0  0  0  0  0  0  0  0  0  0
    0.3990    2.6710   -0.0410 C   0  0  2  0  0  0  0  0  0  0  0  0
    1.4390    0.6540    0.9930 H   0  0  0  0  0  0  0  0  0  0  0  0
   -0.7290    3.4160   -0.0970 C   0  0  0  0  0  0  0  0  0  0  0  0
   -0.7520    4.7680   -0.1310 C   0  0  1  0  0  0  0  0  0  0  0  0
    0.4280    5.4510   -0.0950 C   0  0  1  0  0  0  0  0  0  0  0  0
    1.5570    4.7100    0.0140 C   0  0  0  0  0  0  0  0  0  0  0  0
    1.5950    3.3390    0.0350 C   0  0  2  0  0  0  0  0  0  0  0  0
    0.4240    6.9870   -0.3140 C   0  0  2  0  0  0  0  0  0  0  0  0
   -3.1540    4.8260    0.1110 C   0  0  0  0  0  0  0  0  0  0  0  0
   -1.6880    2.9140   -0.1660 H   0  0  0  0  0  0  0  0  0  0  0  0
    3.0400    2.8060    0.0580 C   0  0  0  0  0  0  0  0  0  0  0  0
    2.5050    5.2530    0.0210 H   0  0  0  0  0  0  0  0  0  0  0  0
    1.5220    7.9860    0.1000 C   0  0  0  0  0  0  0  0  0  0  0  0
    0.8540    9.3090   -0.3550 C   0  0  1  0  0  0  0  0  0  0  0  0
   -0.5780    9.0960   -0.0660 N   0  0  0  0  0  0  0  0  0  0  0  0
   -0.7170    7.7020    0.2940 N   0  0  0  0  0  0  0  0  0  0  0  0
    1.3570   10.6660    0.0750 C   0  0  0  0  0  0  0  0  0  0  0  0
   -1.5760    7.2880   -0.0870 H   0  0  0  0  0  0  0  0  0  0  0  0
   -0.8560    9.6660    0.7370 H   0  0  0  0  0  0  0  0  0  0  0  0
    2.4680    7.8150   -0.4250 H   0  0  0  0  0  0  0  0  0  0  0  0
    0.9570    9.3260   -1.4510 H   0  0  0  0  0  0  0  0  0  0  0  0
    1.7110    7.9730    1.1820 H   0  0  0  0  0  0  0  0  0  0  0  0
    0.3320    7.0710   -1.4120 H   0  0  0  0  0  0  0  0  0  0  0  0
    0.5810   11.7740    0.0730 C   0  0  0  0  0  0  0  0  0  0  0  0
    1.1120   13.1340    0.2530 C   0  0  0  0  0  0  0  0  0  0  0  0
   -0.4780   11.7280   -0.1640 H   0  0  0  0  0  0  0  0  0  0  0  0
    2.4260   10.7740    0.2480 H   0  0  0  0  0  0  0  0  0  0  0  0
   -3.4760    4.1300   -0.6680 H   0  0  0  0  0  0  0  0  0  0  0  0
   -3.0490    4.3210    1.0770 H   0  0  0  0  0  0  0  0  0  0  0  0
   -3.9230    5.5960    0.2180 H   0  0  0  0  0  0  0  0  0  0  0  0
   -1.9400    5.4680   -0.2730 O   0  0  0  0  0  0  0  0  0  0  0  0
    3.4410    1.3400    0.0230 C   0  0  0  0  0  0  0  0  0  0  0  0
    4.5180    1.2570   -0.1690 H   0  0  0  0  0  0  0  0  0  0  0  0
    2.9310    0.7900   -0.7700 H   0  0  0  0  0  0  0  0  0  0  0  0
    3.2900    0.8600    0.9950 H   0  0  0  0  0  0  0  0  0  0  0  0
    3.5480    3.2570   -0.8070 H   0  0  0  0  0  0  0  0  0  0  0  0
    3.5290    3.2290    0.9480 H   0  0  0  0  0  0  0  0  0  0  0  0
    0.1250   14.0350    0.1250 O   0  0  0  0  0  0  0  0  0  0  0  0
    2.2690   13.4560    0.4400 O   0  0  0  0  0  0  0  0  0  0  0  0
    0.5630   14.9050    0.1900 H   0  0  0  0  0  0  0  0  0  0  0  0
  1  5  1  0  0  0  0
  2  1  1  0  0  0  0
  3  2  2  0  0  0  0
  4  2  1  6  0  0  0
  4 10  5  0  0  0  0
  6  4  5  0  0  0  0
  6  7  5  0  0  0  0
  6 13  1  0  0  0  0
  7 34  1  6  0  0  0
  8  7  5  0  0  0  0
  8  9  5  6  0  0  0
  8 11  1  0  0  0  0
  9 15  1  0  0  0  0
 10  9  5  0  0  0  0
 10 14  1  6  0  0  0
 11 19  1  0  0  0  0
 11 26  1  6  0  0  0
 12 31  1  0  0  0  0
 12 32  1  0  0  0  0
 12 33  1  0  0  0  0
 12 34  1  0  0  0  0
 14 39  1  0  0  0  0
 14 40  1  0  0  0  0
 16 11  1  0  0  0  0
 16 23  1  0  0  0  0
 16 25  1  0  0  0  0
 17 16  1  0  0  0  0
 17 24  1  6  0  0  0
 18 17  1  0  0  0  0
 19 18  1  0  0  0  0
 20 17  1  0  0  0  0
 20 30  1  0  0  0  0
 21 19  1  0  0  0  0
 22 18  1  0  0  0  0
 27 20  2  0  0  0  0
 27 29  1  0  0  0  0
 28 27  1  0  0  0  0
 28 42  2  0  0  0  0
 35 36  1  0  0  0  0
 35 37  1  0  0  0  0
 35 38  1  0  0  0  0
 35 14  1  0  0  0  0
 41 28  1  0  0  0  0
 43 41  1  0  0  0  0
M  END
