29

O          1.44900       -0.06700        0.42200
C          0.32700        0.56700        0.02400
O         -0.63900       -0.09400       -0.34200
C          0.34900        2.07800        0.04600
H          2.21800        0.51000        0.57600
C         -0.85100        2.70600        0.15900
C         -0.96000        4.05100        0.06300
C          0.13400        4.83400       -0.11600
C          1.33600        4.20700       -0.15200
C          1.45500        2.85800       -0.09500
C          0.01200        6.33700       -0.36000
O         -2.25300        4.57400        0.08200
N         -2.09200        2.01200        0.35700
Br         3.22600        2.19200       -0.27600
H          2.23800        4.80300       -0.29000
C          1.05400        7.33800        0.08600
N          0.20100        8.48900        0.25200
N         -1.09600        8.14500        0.44300
N         -1.21800        6.91100        0.25700
C          0.55000        9.80500        0.09300
H          1.84000        7.52800       -0.64800
H          1.49600        7.11300        1.06300
H         -0.11000        6.44700       -1.44800
H         -2.28000        5.54600        0.04300
H         -2.18800        1.16700       -0.21000
H         -2.89800        2.62900        0.25200
O         -0.49200       10.65700        0.16600
O          1.66700       10.22100       -0.16300
H         -0.10900       11.54000       -0.01600
