36

O          1.22800        0.24300        0.06100
C          0.07900        0.95200        0.07600
O         -0.99600        0.36400        0.07900
C          0.21400        2.44800        0.05100
H          2.06000        0.73600        0.05400
C         -0.90900        3.21400        0.08500
C         -0.80900        4.55300        0.01900
C          0.38900        5.16400       -0.05200
C          1.50000        4.40800       -0.07900
C          1.41800        3.07000       -0.03300
C          0.53300        6.59500       -0.06600
H         -1.72700        5.13200        0.05100
N         -2.22900        2.70100        0.22200
H          2.36700        2.55300       -0.06500
H          2.48500        4.87700       -0.12700
C         -0.47400        7.46800       -0.02500
C         -0.15100        8.82600        0.01400
H         -1.52300        7.20100       -0.00100
H          1.55000        6.99000       -0.07700
C          0.09000        9.99300        0.03900
C          0.12600       11.39100        0.03800
H         -2.31400        1.68500        0.15300
H         -2.96300        3.18300       -0.28600
C         -1.06300       12.01700        0.02900
C         -1.11000       13.35500        0.00900
C          0.04300       14.06000        0.00100
C          1.23800       13.42800        0.01100
C          1.28100       12.08000        0.02900
C          0.01300       15.54100       -0.01900
H         -2.08400       13.83200       -0.00300
H         -1.98700       11.44100        0.03300
H          2.23900       11.56500        0.03400
H          2.16700       13.99000        0.00100
O         -1.23700       16.03900       -0.01300
O          0.98300       16.27600       -0.03700
H         -1.09600       17.00600       -0.02200
