
 OpenBabel11042013073D

 36 37  0  0  1  0  0  0  0  0999 V2000
    1.2280    0.2430    0.0610 O   0  0  0  0  0  0  0  0  0  0  0  0
    0.0790    0.9520    0.0760 C   0  0  0  0  0  0  0  0  0  0  0  0
   -0.9960    0.3640    0.0790 O   0  0  0  0  0  0  0  0  0  0  0  0
    0.2140    2.4480    0.0510 C   0  0  2  0  0  0  0  0  0  0  0  0
    2.0600    0.7360    0.0540 H   0  0  0  0  0  0  0  0  0  0  0  0
   -0.9090    3.2140    0.0850 C   0  0  2  0  0  0  0  0  0  0  0  0
   -0.8090    4.5530    0.0190 C   0  0  0  0  0  0  0  0  0  0  0  0
    0.3890    5.1640   -0.0520 C   0  0  2  0  0  0  0  0  0  0  0  0
    1.5000    4.4080   -0.0790 C   0  0  0  0  0  0  0  0  0  0  0  0
    1.4180    3.0700   -0.0330 C   0  0  0  0  0  0  0  0  0  0  0  0
    0.5330    6.5950   -0.0660 C   0  0  0  0  0  0  0  0  0  0  0  0
   -1.7270    5.1320    0.0510 H   0  0  0  0  0  0  0  0  0  0  0  0
   -2.2290    2.7010    0.2220 N   0  0  0  0  0  0  0  0  0  0  0  0
    2.3670    2.5530   -0.0650 H   0  0  0  0  0  0  0  0  0  0  0  0
    2.4850    4.8770   -0.1270 H   0  0  0  0  0  0  0  0  0  0  0  0
   -0.4740    7.4680   -0.0250 C   0  0  0  0  0  0  0  0  0  0  0  0
   -0.1510    8.8260    0.0140 C   0  0  0  0  0  0  0  0  0  0  0  0
   -1.5230    7.2010   -0.0010 H   0  0  0  0  0  0  0  0  0  0  0  0
    1.5500    6.9900   -0.0770 H   0  0  0  0  0  0  0  0  0  0  0  0
    0.0900    9.9930    0.0390 C   0  0  0  0  0  0  0  0  0  0  0  0
    0.1260   11.3910    0.0380 C   0  0  2  0  0  0  0  0  0  0  0  0
   -2.3140    1.6850    0.1530 H   0  0  0  0  0  0  0  0  0  0  0  0
   -2.9630    3.1830   -0.2860 H   0  0  0  0  0  0  0  0  0  0  0  0
   -1.0630   12.0170    0.0290 C   0  0  0  0  0  0  0  0  0  0  0  0
   -1.1100   13.3550    0.0090 C   0  0  0  0  0  0  0  0  0  0  0  0
    0.0430   14.0600    0.0010 C   0  0  1  0  0  0  0  0  0  0  0  0
    1.2380   13.4280    0.0110 C   0  0  0  0  0  0  0  0  0  0  0  0
    1.2810   12.0800    0.0290 C   0  0  0  0  0  0  0  0  0  0  0  0
    0.0130   15.5410   -0.0190 C   0  0  0  0  0  0  0  0  0  0  0  0
   -2.0840   13.8320   -0.0030 H   0  0  0  0  0  0  0  0  0  0  0  0
   -1.9870   11.4410    0.0330 H   0  0  0  0  0  0  0  0  0  0  0  0
    2.2390   11.5650    0.0340 H   0  0  0  0  0  0  0  0  0  0  0  0
    2.1670   13.9900    0.0010 H   0  0  0  0  0  0  0  0  0  0  0  0
   -1.2370   16.0390   -0.0130 O   0  0  0  0  0  0  0  0  0  0  0  0
    0.9830   16.2760   -0.0370 O   0  0  0  0  0  0  0  0  0  0  0  0
   -1.0960   17.0060   -0.0220 H   0  0  0  0  0  0  0  0  0  0  0  0
  1  5  1  0  0  0  0
  2  1  1  0  0  0  0
  3  2  2  0  0  0  0
  4  2  1  6  0  0  0
  4 10  5  0  0  0  0
  6  4  5  0  0  0  0
  6  7  5  0  0  0  0
  6 13  1  1  0  0  0
  7 12  1  0  0  0  0
  8  7  5  0  0  0  0
  8 11  1  1  0  0  0
  9  8  5  0  0  0  0
  9 15  1  0  0  0  0
 10  9  5  0  0  0  0
 10 14  1  0  0  0  0
 11 19  1  0  0  0  0
 13 22  1  0  0  0  0
 13 23  1  0  0  0  0
 16 11  2  0  0  0  0
 16 18  1  0  0  0  0
 17 16  1  0  0  0  0
 20 17  3  0  0  0  0
 21 20  1  6  0  0  0
 21 28  5  0  0  0  0
 24 21  5  0  0  0  0
 24 25  5  0  0  0  0
 24 31  1  0  0  0  0
 25 30  1  0  0  0  0
 26 25  5  0  0  0  0
 26 29  1  6  0  0  0
 27 26  5  0  0  0  0
 27 33  1  0  0  0  0
 28 27  5  0  0  0  0
 28 32  1  0  0  0  0
 29 35  2  0  0  0  0
 34 29  1  0  0  0  0
 36 34  1  0  0  0  0
M  END
