
 OpenBabel11042013073D

 36 37  0  0  1  0  0  0  0  0999 V2000
    1.3750   -0.0100    0.3540 O   0  0  0  0  0  0  0  0  0  0  0  0
    0.2470    0.7310    0.2530 C   0  0  0  0  0  0  0  0  0  0  0  0
   -0.8450    0.1810    0.2560 O   0  0  0  0  0  0  0  0  0  0  0  0
    0.4610    2.2160    0.1330 C   0  0  2  0  0  0  0  0  0  0  0  0
    2.2060    0.4740    0.4730 H   0  0  0  0  0  0  0  0  0  0  0  0
   -0.6050    3.0380    0.3290 C   0  0  2  0  0  0  0  0  0  0  0  0
   -0.4260    4.3690    0.2430 C   0  0  0  0  0  0  0  0  0  0  0  0
    0.7710    4.9020   -0.0410 C   0  0  2  0  0  0  0  0  0  0  0  0
    1.8220    4.0970   -0.2730 C   0  0  0  0  0  0  0  0  0  0  0  0
    1.6630    2.7600   -0.1910 C   0  0  0  0  0  0  0  0  0  0  0  0
    0.8550    6.3090   -0.0490 C   0  0  0  0  0  0  0  0  0  0  0  0
   -1.2700    5.0330    0.4230 H   0  0  0  0  0  0  0  0  0  0  0  0
   -2.8430    2.8200   -0.3270 C   0  0  0  0  0  0  0  0  0  0  0  0
    2.5400    2.1600   -0.4070 H   0  0  0  0  0  0  0  0  0  0  0  0
    2.7970    4.5160   -0.5170 H   0  0  0  0  0  0  0  0  0  0  0  0
   -3.1720    3.8650   -0.2940 H   0  0  0  0  0  0  0  0  0  0  0  0
   -2.4730    2.5720   -1.3270 H   0  0  0  0  0  0  0  0  0  0  0  0
   -3.7080    2.1890   -0.1120 H   0  0  0  0  0  0  0  0  0  0  0  0
   -1.8590    2.5640    0.6770 O   0  0  0  0  0  0  0  0  0  0  0  0
    0.7120    7.4970    0.0080 C   0  0  0  0  0  0  0  0  0  0  0  0
    0.4710    8.8880    0.0270 C   0  0  2  0  0  0  0  0  0  0  0  0
   -0.7830    9.3830   -0.0280 C   0  0  0  0  0  0  0  0  0  0  0  0
   -0.9710   10.7160   -0.1170 C   0  0  0  0  0  0  0  0  0  0  0  0
    0.0820   11.5620   -0.1480 C   0  0  1  0  0  0  0  0  0  0  0  0
    1.3300   11.0440   -0.0420 C   0  0  0  0  0  0  0  0  0  0  0  0
    1.5250    9.7200    0.0490 C   0  0  0  0  0  0  0  0  0  0  0  0
   -0.0240   12.9070   -0.3540 N   0  0  0  0  0  0  0  0  0  0  0  0
   -1.9830   11.1070   -0.1970 H   0  0  0  0  0  0  0  0  0  0  0  0
   -1.6450    8.7180   -0.0320 H   0  0  0  0  0  0  0  0  0  0  0  0
    2.5370    9.3270    0.1120 H   0  0  0  0  0  0  0  0  0  0  0  0
    2.1900   11.7060   -0.0570 H   0  0  0  0  0  0  0  0  0  0  0  0
   -0.6920   13.5590    0.4700 N   0  0  0  0  0  0  0  0  0  0  0  0
   -0.5130   14.8960    0.2180 C   0  0  0  0  0  0  0  0  0  0  0  0
   -1.6880   15.5550    0.1610 O   0  0  0  0  0  0  0  0  0  0  0  0
    0.5300   15.5070    0.0550 O   0  0  0  0  0  0  0  0  0  0  0  0
   -1.3890   16.4600   -0.0570 H   0  0  0  0  0  0  0  0  0  0  0  0
  1  5  1  0  0  0  0
  2  1  1  0  0  0  0
  3  2  2  0  0  0  0
  4  2  1  6  0  0  0
  4 10  5  0  0  0  0
  6  4  5  0  0  0  0
  6  7  5  0  0  0  0
  6 19  1  1  0  0  0
  7 12  1  0  0  0  0
  8  7  5  0  0  0  0
  8 11  1  1  0  0  0
  9  8  5  0  0  0  0
  9 15  1  0  0  0  0
 10  9  5  0  0  0  0
 10 14  1  0  0  0  0
 13 16  1  0  0  0  0
 13 17  1  0  0  0  0
 13 18  1  0  0  0  0
 13 19  1  0  0  0  0
 20 11  3  0  0  0  0
 21 20  1  6  0  0  0
 21 26  5  0  0  0  0
 22 21  5  0  0  0  0
 22 23  5  0  0  0  0
 22 29  1  0  0  0  0
 23 28  1  0  0  0  0
 24 23  5  0  0  0  0
 24 27  1  6  0  0  0
 25 24  5  0  0  0  0
 25 31  1  0  0  0  0
 26 25  5  0  0  0  0
 26 30  1  0  0  0  0
 32 27  2  0  0  0  0
 33 32  1  0  0  0  0
 33 35  2  0  0  0  0
 34 33  1  0  0  0  0
 36 34  1  0  0  0  0
M  END
