
 OpenBabel11042013073D

 41 42  0  0  1  0  0  0  0  0999 V2000
    1.0310    0.6970    0.5330 O   0  0  0  0  0  0  0  0  0  0  0  0
    0.0170    1.4870    0.1760 C   0  0  0  0  0  0  0  0  0  0  0  0
   -1.0050    0.9380   -0.2040 O   0  0  0  0  0  0  0  0  0  0  0  0
    0.3080    2.9590    0.2060 C   0  0  1  0  0  0  0  0  0  0  0  0
    0.7220   -0.1830    0.2290 H   0  0  0  0  0  0  0  0  0  0  0  0
   -0.8260    3.7100    0.3030 C   0  0  2  0  0  0  0  0  0  0  0  0
   -0.7420    5.0490    0.2870 C   0  0  0  0  0  0  0  0  0  0  0  0
    0.4250    5.7240    0.1830 C   0  0  2  0  0  0  0  0  0  0  0  0
    1.5400    4.9580    0.1150 C   0  0  0  0  0  0  0  0  0  0  0  0
    1.5300    3.5870    0.1500 C   0  0  1  0  0  0  0  0  0  0  0  0
    0.3990    7.2490    0.3240 C   0  0  1  0  0  0  0  0  0  0  0  0
   -1.6710    5.5920    0.4180 H   0  0  0  0  0  0  0  0  0  0  0  0
   -3.0520    3.2850   -0.4280 C   0  0  0  0  0  0  0  0  0  0  0  0
    2.9510    2.9840    0.1920 C   0  0  0  0  0  0  0  0  0  0  0  0
    2.4970    5.4780    0.0840 H   0  0  0  0  0  0  0  0  0  0  0  0
    1.4840    8.2440   -0.1280 C   0  0  0  0  0  0  0  0  0  0  0  0
    0.8170    9.5460    0.3320 C   0  0  2  0  0  0  0  0  0  0  0  0
   -0.6260    9.3290    0.1020 N   0  0  0  0  0  0  0  0  0  0  0  0
   -0.7700    7.9310   -0.2760 N   0  0  0  0  0  0  0  0  0  0  0  0
    1.2180   10.8550   -0.1960 C   0  0  0  0  0  0  0  0  0  0  0  0
   -1.6390    7.5610    0.1090 H   0  0  0  0  0  0  0  0  0  0  0  0
   -0.9650    9.9470   -0.6400 H   0  0  0  0  0  0  0  0  0  0  0  0
    2.4410    8.0820    0.3810 H   0  0  0  0  0  0  0  0  0  0  0  0
    0.9560    9.6100    1.4210 H   0  0  0  0  0  0  0  0  0  0  0  0
    1.6590    8.2200   -1.2120 H   0  0  0  0  0  0  0  0  0  0  0  0
    0.3200    7.3660    1.4190 H   0  0  0  0  0  0  0  0  0  0  0  0
   -3.9720    3.6580    0.0350 H   0  0  0  0  0  0  0  0  0  0  0  0
   -2.7640    3.9610   -1.2380 H   0  0  0  0  0  0  0  0  0  0  0  0
   -3.2610    2.2930   -0.8400 H   0  0  0  0  0  0  0  0  0  0  0  0
   -2.0670    3.1520    0.5920 O   0  0  0  0  0  0  0  0  0  0  0  0
    1.3240   12.0450   -0.3560 C   0  0  0  0  0  0  0  0  0  0  0  0
    1.2810   13.4910   -0.3400 C   0  0  0  0  0  0  0  0  0  0  0  0
    3.3610    1.5830   -0.2560 C   0  0  0  0  0  0  0  0  0  0  0  0
    3.2410    0.8530    0.5560 H   0  0  0  0  0  0  0  0  0  0  0  0
    4.4350    1.5630   -0.4710 H   0  0  0  0  0  0  0  0  0  0  0  0
    2.8330    1.2540   -1.1510 H   0  0  0  0  0  0  0  0  0  0  0  0
    3.3000    3.0950    1.2300 H   0  0  0  0  0  0  0  0  0  0  0  0
    3.5970    3.6430   -0.4060 H   0  0  0  0  0  0  0  0  0  0  0  0
    0.0400   14.0010   -0.2590 O   0  0  0  0  0  0  0  0  0  0  0  0
    2.2790   14.1980   -0.3180 O   0  0  0  0  0  0  0  0  0  0  0  0
    0.1730   14.9620   -0.1640 H   0  0  0  0  0  0  0  0  0  0  0  0
  1  5  1  0  0  0  0
  2  1  1  0  0  0  0
  3  2  2  0  0  0  0
  4  2  1  1  0  0  0
  4 10  5  0  0  0  0
  6  4  5  0  0  0  0
  6  7  5  0  0  0  0
  6 30  1  1  0  0  0
  7 12  1  0  0  0  0
  8  7  5  1  0  0  0
  8 11  1  0  0  0  0
  9  8  5  0  0  0  0
  9 15  1  0  0  0  0
 10  9  5  0  0  0  0
 10 14  1  1  0  0  0
 11 19  1  0  0  0  0
 11 26  1  1  0  0  0
 13 27  1  0  0  0  0
 13 28  1  0  0  0  0
 13 29  1  0  0  0  0
 13 30  1  0  0  0  0
 14 37  1  0  0  0  0
 14 38  1  0  0  0  0
 16 11  1  0  0  0  0
 16 23  1  0  0  0  0
 16 25  1  0  0  0  0
 17 16  1  0  0  0  0
 17 24  1  1  0  0  0
 18 17  1  0  0  0  0
 19 18  1  0  0  0  0
 20 17  1  0  0  0  0
 21 19  1  0  0  0  0
 22 18  1  0  0  0  0
 31 20  3  0  0  0  0
 32 31  1  0  0  0  0
 32 40  2  0  0  0  0
 33 34  1  0  0  0  0
 33 35  1  0  0  0  0
 33 36  1  0  0  0  0
 33 14  1  0  0  0  0
 39 32  1  0  0  0  0
 41 39  1  0  0  0  0
M  END
