41

O          1.03100        0.69700        0.53300
C          0.01700        1.48700        0.17600
O         -1.00500        0.93800       -0.20400
C          0.30800        2.95900        0.20600
H          0.72200       -0.18300        0.22900
C         -0.82600        3.71000        0.30300
C         -0.74200        5.04900        0.28700
C          0.42500        5.72400        0.18300
C          1.54000        4.95800        0.11500
C          1.53000        3.58700        0.15000
C          0.39900        7.24900        0.32400
H         -1.67100        5.59200        0.41800
C         -3.05200        3.28500       -0.42800
C          2.95100        2.98400        0.19200
H          2.49700        5.47800        0.08400
C          1.48400        8.24400       -0.12800
C          0.81700        9.54600        0.33200
N         -0.62600        9.32900        0.10200
N         -0.77000        7.93100       -0.27600
C          1.21800       10.85500       -0.19600
H         -1.63900        7.56100        0.10900
H         -0.96500        9.94700       -0.64000
H          2.44100        8.08200        0.38100
H          0.95600        9.61000        1.42100
H          1.65900        8.22000       -1.21200
H          0.32000        7.36600        1.41900
H         -3.97200        3.65800        0.03500
H         -2.76400        3.96100       -1.23800
H         -3.26100        2.29300       -0.84000
O         -2.06700        3.15200        0.59200
C          1.32400       12.04500       -0.35600
C          1.28100       13.49100       -0.34000
C          3.36100        1.58300       -0.25600
H          3.24100        0.85300        0.55600
H          4.43500        1.56300       -0.47100
H          2.83300        1.25400       -1.15100
H          3.30000        3.09500        1.23000
H          3.59700        3.64300       -0.40600
O          0.04000       14.00100       -0.25900
O          2.27900       14.19800       -0.31800
H          0.17300       14.96200       -0.16400
