
 OpenBabel11042013073D

 37 38  0  0  1  0  0  0  0  0999 V2000
    1.1010    0.1080    0.3650 O   0  0  0  0  0  0  0  0  0  0  0  0
   -0.1490    0.5370    0.0850 C   0  0  0  0  0  0  0  0  0  0  0  0
   -1.0990   -0.2310    0.0430 O   0  0  0  0  0  0  0  0  0  0  0  0
   -0.2760    2.0120   -0.1140 C   0  0  2  0  0  0  0  0  0  0  0  0
    1.7590    0.8040    0.5330 H   0  0  0  0  0  0  0  0  0  0  0  0
   -1.4870    2.5690    0.0940 C   0  0  0  0  0  0  0  0  0  0  0  0
   -1.6650    3.8940   -0.0750 C   0  0  0  0  0  0  0  0  0  0  0  0
   -0.6250    4.6750   -0.4370 C   0  0  2  0  0  0  0  0  0  0  0  0
    0.6000    4.1240   -0.6300 C   0  0  1  0  0  0  0  0  0  0  0  0
    0.7540    2.7920   -0.5000 C   0  0  0  0  0  0  0  0  0  0  0  0
   -0.7900    6.0790   -0.5820 C   0  0  0  0  0  0  0  0  0  0  0  0
   -2.6490    4.3260    0.0930 H   0  0  0  0  0  0  0  0  0  0  0  0
   -2.3370    1.9530    0.3960 H   0  0  0  0  0  0  0  0  0  0  0  0
    1.7370    2.3870   -0.7170 H   0  0  0  0  0  0  0  0  0  0  0  0
    2.2540    5.6110    0.1090 C   0  0  0  0  0  0  0  0  0  0  0  0
   -0.6890    7.2710   -0.5990 C   0  0  0  0  0  0  0  0  0  0  0  0
   -0.3420    8.7390   -0.4340 C   0  0  0  0  0  0  0  0  0  0  0  0
   -0.1190    9.8780   -0.1240 C   0  0  0  0  0  0  0  0  0  0  0  0
   -0.0930   11.2410    0.3860 C   0  0  1  0  0  0  0  0  0  0  0  0
    0.7670   12.0900   -0.3790 O   0  0  0  0  0  0  0  0  0  0  0  0
   -1.2380   13.2850    0.1110 C   0  0  0  0  0  0  0  0  0  0  0  0
   -1.4900   11.8180    0.2730 C   0  0  0  0  0  0  0  0  0  0  0  0
    0.8850   14.5670   -0.0600 C   0  0  0  0  0  0  0  0  0  0  0  0
   -2.0060   11.4410   -0.6200 H   0  0  0  0  0  0  0  0  0  0  0  0
   -1.2120   13.7630    1.0970 H   0  0  0  0  0  0  0  0  0  0  0  0
   -2.0200   13.7780   -0.4730 H   0  0  0  0  0  0  0  0  0  0  0  0
   -2.1120   11.5720    1.1380 H   0  0  0  0  0  0  0  0  0  0  0  0
    0.0090   13.4700   -1.6660 H   0  0  0  0  0  0  0  0  0  0  0  0
    0.1160   13.3510   -0.5830 C   0  0  1  0  0  0  0  0  0  0  0  0
    0.2620   11.2590    1.4240 H   0  0  0  0  0  0  0  0  0  0  0  0
    3.3440    5.5540    0.0530 H   0  0  0  0  0  0  0  0  0  0  0  0
    1.9380    5.2220    1.0840 H   0  0  0  0  0  0  0  0  0  0  0  0
    1.9720    6.6640    0.0240 H   0  0  0  0  0  0  0  0  0  0  0  0
    1.7170    4.8700   -0.9920 O   0  0  0  0  0  0  0  0  0  0  0  0
    0.1870   15.7160   -0.2290 O   0  0  0  0  0  0  0  0  0  0  0  0
    1.9820   14.5920    0.4700 O   0  0  0  0  0  0  0  0  0  0  0  0
    0.7590   16.4070    0.1670 H   0  0  0  0  0  0  0  0  0  0  0  0
  1  5  1  0  0  0  0
  2  1  1  0  0  0  0
  3  2  2  0  0  0  0
  4  2  1  6  0  0  0
  4 10  5  0  0  0  0
  6  4  5  0  0  0  0
  6  7  5  0  0  0  0
  6 13  1  0  0  0  0
  7 12  1  0  0  0  0
  8  7  5  0  0  0  0
  8 11  1  1  0  0  0
  9  8  5  0  0  0  0
  9 34  1  6  0  0  0
 10  9  5  0  0  0  0
 10 14  1  0  0  0  0
 15 31  1  0  0  0  0
 15 32  1  0  0  0  0
 15 33  1  0  0  0  0
 15 34  1  0  0  0  0
 16 11  3  0  0  0  0
 17 16  1  0  0  0  0
 18 17  3  0  0  0  0
 19 18  1  0  0  0  0
 19 22  1  0  0  0  0
 19 30  1  1  0  0  0
 20 19  1  0  0  0  0
 21 29  1  0  0  0  0
 21 26  1  0  0  0  0
 22 21  1  0  0  0  0
 22 27  1  0  0  0  0
 23 29  1  0  0  0  0
 23 36  2  0  0  0  0
 24 22  1  0  0  0  0
 25 21  1  0  0  0  0
 29 20  1  0  0  0  0
 29 28  1  6  0  0  0
 35 23  1  0  0  0  0
 37 35  1  0  0  0  0
M  END
