38

O          1.25000       -0.65700       -0.09500
C         -0.01400       -0.21200       -0.31100
O         -0.92200       -1.00600       -0.48700
C         -0.16000        1.27800       -0.23200
H          1.88300       -0.01200        0.26200
C         -1.32400        1.86100        0.13300
C         -1.35100        3.19000        0.36200
C         -0.25000        3.97800        0.24700
C          0.86500        3.40000       -0.26100
C          0.90300        2.07300       -0.50300
C         -0.36100        5.42100        0.73100
H         -2.29300        3.62800        0.69300
Cl        -2.81600        1.01000        0.39100
H          1.82500        1.64600       -0.88600
N          2.04900        4.15800       -0.50700
C          0.53400        6.53500        0.22200
N         -0.39100        7.64100        0.26400
N         -1.68300        7.21100        0.31900
N         -1.71900        5.97300        0.49500
C         -0.12100        8.97900        0.06600
H          0.84600        6.41600       -0.81900
H          1.39400        6.69800        0.87900
H         -0.23600        5.37200        1.82400
H          2.70100        3.69700       -1.14200
H          2.57700        4.31400        0.35100
C         -1.13500        9.81700       -0.25500
C         -0.93800       11.13400       -0.41000
C          0.29200       11.65600       -0.22500
C          1.32800       10.84000        0.06000
C          1.12000        9.50700        0.19800
C          0.49400       13.11900       -0.29100
H         -1.78500       11.76100       -0.66700
H         -2.14300        9.44100       -0.39400
H          1.97200        8.89000        0.46100
H          2.32800       11.25200        0.19900
O         -0.64800       13.80800       -0.09400
O          1.55800       13.69400       -0.45600
H         -0.37500       14.74800       -0.08700
