
 OpenBabel11042013073D

 28 29  0  0  1  0  0  0  0  0999 V2000
    1.2760   -0.0580   -0.1060 O   0  0  0  0  0  0  0  0  0  0  0  0
    0.0210    0.4380   -0.1050 C   0  0  0  0  0  0  0  0  0  0  0  0
   -0.9550   -0.2810   -0.2780 O   0  0  0  0  0  0  0  0  0  0  0  0
   -0.0890    1.9150    0.0240 C   0  0  1  0  0  0  0  0  0  0  0  0
    1.9870    0.5900    0.0750 H   0  0  0  0  0  0  0  0  0  0  0  0
   -1.1860    2.5150   -0.4550 C   0  0  0  0  0  0  0  0  0  0  0  0
   -1.3030    3.8630   -0.4390 C   0  0  1  0  0  0  0  0  0  0  0  0
   -0.3340    4.6560    0.1150 C   0  0  1  0  0  0  0  0  0  0  0  0
    0.7310    4.0120    0.7020 C   0  0  2  0  0  0  0  0  0  0  0  0
    0.8570    2.6680    0.6090 C   0  0  2  0  0  0  0  0  0  0  0  0
   -0.3940    6.1590    0.0420 C   0  0  2  0  0  0  0  0  0  0  0  0
   -2.7590    4.4620   -1.1960 Cl  0  0  0  0  0  0  0  0  0  0  0  0
   -1.9790    1.9060   -0.8920 H   0  0  0  0  0  0  0  0  0  0  0  0
    1.9610    2.0580    1.1010 F   0  0  0  0  0  0  0  0  0  0  0  0
    2.1020    4.8790    1.7090 Br  0  0  0  0  0  0  0  0  0  0  0  0
   -1.4980    6.8880    0.3500 C   0  0  0  0  0  0  0  0  0  0  0  0
   -1.5130    8.2340    0.2500 C   0  0  0  0  0  0  0  0  0  0  0  0
   -0.3990    8.9020   -0.1130 C   0  0  2  0  0  0  0  0  0  0  0  0
    0.7100    8.2040   -0.4230 C   0  0  0  0  0  0  0  0  0  0  0  0
    0.6940    6.8600   -0.3780 C   0  0  0  0  0  0  0  0  0  0  0  0
   -0.3270   10.3860   -0.1880 C   0  0  0  0  0  0  0  0  0  0  0  0
   -2.4300    8.7740    0.4770 H   0  0  0  0  0  0  0  0  0  0  0  0
   -2.4170    6.4080    0.6770 H   0  0  0  0  0  0  0  0  0  0  0  0
    1.6110    6.3530   -0.6710 H   0  0  0  0  0  0  0  0  0  0  0  0
    1.6250    8.7170   -0.7110 H   0  0  0  0  0  0  0  0  0  0  0  0
   -1.5280   10.9830   -0.0990 O   0  0  0  0  0  0  0  0  0  0  0  0
    0.6880   11.0510   -0.3220 O   0  0  0  0  0  0  0  0  0  0  0  0
   -1.3160   11.9370   -0.1720 H   0  0  0  0  0  0  0  0  0  0  0  0
  1  5  1  0  0  0  0
  2  1  1  0  0  0  0
  3  2  2  0  0  0  0
  4  2  1  1  0  0  0
  4 10  5  0  0  0  0
  6  4  5  0  0  0  0
  6  7  5  0  0  0  0
  6 13  1  0  0  0  0
  7 12  1  6  0  0  0
  8  7  5  0  0  0  0
  8 11  1  6  0  0  0
  9  8  5  0  0  0  0
  9 15  1  1  0  0  0
 10  9  5  0  0  0  0
 10 14  1  6  0  0  0
 11 16  5  6  0  0  0
 11 20  5  0  0  0  0
 16 17  5  0  0  0  0
 16 23  1  0  0  0  0
 17 22  1  0  0  0  0
 18 17  5  0  0  0  0
 18 21  1  1  0  0  0
 19 18  5  0  0  0  0
 19 25  1  0  0  0  0
 20 19  5  0  0  0  0
 20 24  1  0  0  0  0
 21 27  2  0  0  0  0
 26 21  1  0  0  0  0
 28 26  1  0  0  0  0
M  END
