28

O          1.27600       -0.05800       -0.10600
C          0.02100        0.43800       -0.10500
O         -0.95500       -0.28100       -0.27800
C         -0.08900        1.91500        0.02400
H          1.98700        0.59000        0.07500
C         -1.18600        2.51500       -0.45500
C         -1.30300        3.86300       -0.43900
C         -0.33400        4.65600        0.11500
C          0.73100        4.01200        0.70200
C          0.85700        2.66800        0.60900
C         -0.39400        6.15900        0.04200
Cl        -2.75900        4.46200       -1.19600
H         -1.97900        1.90600       -0.89200
F          1.96100        2.05800        1.10100
Br         2.10200        4.87900        1.70900
C         -1.49800        6.88800        0.35000
C         -1.51300        8.23400        0.25000
C         -0.39900        8.90200       -0.11300
C          0.71000        8.20400       -0.42300
C          0.69400        6.86000       -0.37800
C         -0.32700       10.38600       -0.18800
H         -2.43000        8.77400        0.47700
H         -2.41700        6.40800        0.67700
H          1.61100        6.35300       -0.67100
H          1.62500        8.71700       -0.71100
O         -1.52800       10.98300       -0.09900
O          0.68800       11.05100       -0.32200
H         -1.31600       11.93700       -0.17200
