35

O          0.80300        0.16000        0.02800
C         -0.36300        0.84700       -0.07400
O         -1.43600        0.26600       -0.07900
C         -0.27600        2.35300       -0.14500
H          1.65000        0.63500        0.07900
C         -1.32200        3.17300       -0.19700
C         -1.20200        4.53500       -0.16700
C          0.02300        5.24100       -0.04400
C          1.07800        4.31800       -0.04000
C          0.91400        2.99100       -0.10000
C          0.00600        6.93000        0.15400
F         -2.33400        5.23800       -0.20200
H         -2.33800        2.71400       -0.24400
H          1.84000        2.39000       -0.08000
C          2.86500        5.77000        0.45600
C          1.13700        8.03100       -0.03100
C          0.52800        9.43400       -0.18400
N         -0.83400        9.13900       -0.59400
N         -1.10200        7.65200       -0.52500
C          0.72100       10.87800        0.30000
H         -1.97000        7.47100       -0.01000
H         -1.49300        9.68400       -0.03400
H          1.91900        8.01000        0.72500
H          1.18300        9.68600       -1.02100
H          1.56800        7.82800       -1.03300
H         -0.20600        6.96400        1.22900
C          0.82400       12.09800        0.29000
C          0.98100       13.56300        0.12400
H          2.37000        6.06100        1.38900
H          2.67100        6.39200       -0.40500
H          3.94100        5.78500        0.60400
O          2.44000        4.50800        0.08000
O         -0.16400       14.28500        0.05600
O          2.06200       14.12800        0.04800
H          0.13600       15.22000       -0.04000
