
 OpenBabel11042013073D

 24 24  0  0  1  0  0  0  0  0999 V2000
    1.3880    0.2420   -0.0940 O   0  0  0  0  0  0  0  0  0  0  0  0
    0.1920    0.8630   -0.0600 C   0  0  0  0  0  0  0  0  0  0  0  0
   -0.8300    0.1980   -0.0670 O   0  0  0  0  0  0  0  0  0  0  0  0
    0.1990    2.3690    0.0090 C   0  0  1  0  0  0  0  0  0  0  0  0
    2.2190    0.7370   -0.0370 H   0  0  0  0  0  0  0  0  0  0  0  0
   -0.9730    3.0570    0.1060 C   0  0  1  0  0  0  0  0  0  0  0  0
   -0.9450    4.4100    0.2180 C   0  0  0  0  0  0  0  0  0  0  0  0
    0.2130    5.1080    0.2150 C   0  0  2  0  0  0  0  0  0  0  0  0
    1.3710    4.4200    0.0800 C   0  0  1  0  0  0  0  0  0  0  0  0
    1.3580    3.0720   -0.0210 C   0  0  0  0  0  0  0  0  0  0  0  0
    0.2360    6.4690    0.3940 N   0  0  0  0  0  0  0  0  0  0  0  0
   -1.8810    4.9610    0.3160 H   0  0  0  0  0  0  0  0  0  0  0  0
   -2.2740    2.4470    0.0970 C   0  0  0  0  0  0  0  0  0  0  0  0
    2.3260    2.5940   -0.1230 H   0  0  0  0  0  0  0  0  0  0  0  0
    2.6250    5.1090    0.0360 C   0  0  0  0  0  0  0  0  0  0  0  0
   -3.3670    2.0580    0.0790 N   0  0  0  0  0  0  0  0  0  0  0  0
    3.6630    5.6240   -0.0210 N   0  0  0  0  0  0  0  0  0  0  0  0
   -0.1550    7.1540   -0.5710 N   0  0  0  0  0  0  0  0  0  0  0  0
    0.2310    8.4690   -0.3500 N   0  0  0  0  0  0  0  0  0  0  0  0
   -0.7670    9.1970   -0.2050 N   0  0  0  0  0  0  0  0  0  0  0  0
   -0.3900   10.4980   -0.0110 C   0  0  0  0  0  0  0  0  0  0  0  0
   -1.4650   11.3110    0.0510 O   0  0  0  0  0  0  0  0  0  0  0  0
    0.7300   10.9810    0.0890 O   0  0  0  0  0  0  0  0  0  0  0  0
   -1.0550   12.1940    0.1490 H   0  0  0  0  0  0  0  0  0  0  0  0
  1  5  1  0  0  0  0
  2  1  1  0  0  0  0
  3  2  2  0  0  0  0
  4  2  1  1  0  0  0
  4 10  5  0  0  0  0
  6  4  5  0  0  0  0
  6  7  5  0  0  0  0
  6 13  1  6  0  0  0
  7 12  1  0  0  0  0
  8  7  5  0  0  0  0
  8 11  1  1  0  0  0
  9  8  5  0  0  0  0
  9 15  1  6  0  0  0
 10  9  5  0  0  0  0
 10 14  1  0  0  0  0
 13 16  3  0  0  0  0
 15 17  3  0  0  0  0
 18 11  2  0  0  0  0
 19 18  1  0  0  0  0
 20 19  2  0  0  0  0
 21 20  1  0  0  0  0
 21 23  2  0  0  0  0
 22 21  1  0  0  0  0
 24 22  1  0  0  0  0
M  END
