24

O          1.38800        0.24200       -0.09400
C          0.19200        0.86300       -0.06000
O         -0.83000        0.19800       -0.06700
C          0.19900        2.36900        0.00900
H          2.21900        0.73700       -0.03700
C         -0.97300        3.05700        0.10600
C         -0.94500        4.41000        0.21800
C          0.21300        5.10800        0.21500
C          1.37100        4.42000        0.08000
C          1.35800        3.07200       -0.02100
N          0.23600        6.46900        0.39400
H         -1.88100        4.96100        0.31600
C         -2.27400        2.44700        0.09700
H          2.32600        2.59400       -0.12300
C          2.62500        5.10900        0.03600
N         -3.36700        2.05800        0.07900
N          3.66300        5.62400       -0.02100
N         -0.15500        7.15400       -0.57100
N          0.23100        8.46900       -0.35000
N         -0.76700        9.19700       -0.20500
C         -0.39000       10.49800       -0.01100
O         -1.46500       11.31100        0.05100
O          0.73000       10.98100        0.08900
H         -1.05500       12.19400        0.14900
