37

O          1.46600        0.64900        0.36900
C          0.36000        1.41700        0.28200
O         -0.72800        0.86200        0.20900
C          0.56300        2.92000        0.25300
H          2.31500        1.12400        0.34000
C         -0.52800        3.70300        0.50000
C         -0.41700        5.05100        0.45400
C          0.73800        5.68600        0.16100
C          1.81500        4.89700       -0.05000
C          1.73900        3.54600       -0.01200
C          0.90000        7.14900        0.05800
H         -1.31900        5.63000        0.66700
C         -2.72000        3.03300       -0.10200
Cl         3.24500        2.72000       -0.31600
H          2.77600        5.35900       -0.27100
C         -0.06700        8.08700        0.09600
C          0.08100        9.53800       -0.28800
H         -1.09600        7.77700        0.25600
H          1.91200        7.48800       -0.16800
C          1.31600       10.37400        0.05400
C          0.84400       11.76200       -0.38800
N         -0.63500       11.72900       -0.21000
N         -0.95300       10.40300        0.29700
C          1.44000       13.00900        0.26900
H         -1.87900       10.10900       -0.02200
H         -0.90800       12.48000        0.43900
H          2.20000       10.05400       -0.50700
H          1.04200       11.88000       -1.46100
H          1.55900       10.34000        1.12500
H         -0.05600        9.55100       -1.38100
H         -2.39800        2.32900       -0.87500
H         -2.96600        3.99800       -0.55400
H         -3.62900        2.63200        0.36000
O         -1.74300        3.17700        0.92900
O          0.54400       14.02900        0.33200
O          2.60500       13.19400        0.57900
H          1.06100       14.83400        0.54400
