
 OpenBabel11042013073D

 37 38  0  0  1  0  0  0  0  0999 V2000
    1.4660    0.6490    0.3690 O   0  0  0  0  0  0  0  0  0  0  0  0
    0.3600    1.4170    0.2820 C   0  0  0  0  0  0  0  0  0  0  0  0
   -0.7280    0.8620    0.2090 O   0  0  0  0  0  0  0  0  0  0  0  0
    0.5630    2.9200    0.2530 C   0  0  2  0  0  0  0  0  0  0  0  0
    2.3150    1.1240    0.3400 H   0  0  0  0  0  0  0  0  0  0  0  0
   -0.5280    3.7030    0.5000 C   0  0  2  0  0  0  0  0  0  0  0  0
   -0.4170    5.0510    0.4540 C   0  0  0  0  0  0  0  0  0  0  0  0
    0.7380    5.6860    0.1610 C   0  0  1  0  0  0  0  0  0  0  0  0
    1.8150    4.8970   -0.0500 C   0  0  0  0  0  0  0  0  0  0  0  0
    1.7390    3.5460   -0.0120 C   0  0  1  0  0  0  0  0  0  0  0  0
    0.9000    7.1490    0.0580 C   0  0  0  0  0  0  0  0  0  0  0  0
   -1.3190    5.6300    0.6670 H   0  0  0  0  0  0  0  0  0  0  0  0
   -2.7200    3.0330   -0.1020 C   0  0  0  0  0  0  0  0  0  0  0  0
    3.2450    2.7200   -0.3160 Cl  0  0  0  0  0  0  0  0  0  0  0  0
    2.7760    5.3590   -0.2710 H   0  0  0  0  0  0  0  0  0  0  0  0
   -0.0670    8.0870    0.0960 C   0  0  0  0  0  0  0  0  0  0  0  0
    0.0810    9.5380   -0.2880 C   0  0  2  0  0  0  0  0  0  0  0  0
   -1.0960    7.7770    0.2560 H   0  0  0  0  0  0  0  0  0  0  0  0
    1.9120    7.4880   -0.1680 H   0  0  0  0  0  0  0  0  0  0  0  0
    1.3160   10.3740    0.0540 C   0  0  0  0  0  0  0  0  0  0  0  0
    0.8440   11.7620   -0.3880 C   0  0  1  0  0  0  0  0  0  0  0  0
   -0.6350   11.7290   -0.2100 N   0  0  0  0  0  0  0  0  0  0  0  0
   -0.9530   10.4030    0.2970 N   0  0  0  0  0  0  0  0  0  0  0  0
    1.4400   13.0090    0.2690 C   0  0  0  0  0  0  0  0  0  0  0  0
   -1.8790   10.1090   -0.0220 H   0  0  0  0  0  0  0  0  0  0  0  0
   -0.9080   12.4800    0.4390 H   0  0  0  0  0  0  0  0  0  0  0  0
    2.2000   10.0540   -0.5070 H   0  0  0  0  0  0  0  0  0  0  0  0
    1.0420   11.8800   -1.4610 H   0  0  0  0  0  0  0  0  0  0  0  0
    1.5590   10.3400    1.1250 H   0  0  0  0  0  0  0  0  0  0  0  0
   -0.0560    9.5510   -1.3810 H   0  0  0  0  0  0  0  0  0  0  0  0
   -2.3980    2.3290   -0.8750 H   0  0  0  0  0  0  0  0  0  0  0  0
   -2.9660    3.9980   -0.5540 H   0  0  0  0  0  0  0  0  0  0  0  0
   -3.6290    2.6320    0.3600 H   0  0  0  0  0  0  0  0  0  0  0  0
   -1.7430    3.1770    0.9290 O   0  0  0  0  0  0  0  0  0  0  0  0
    0.5440   14.0290    0.3320 O   0  0  0  0  0  0  0  0  0  0  0  0
    2.6050   13.1940    0.5790 O   0  0  0  0  0  0  0  0  0  0  0  0
    1.0610   14.8340    0.5440 H   0  0  0  0  0  0  0  0  0  0  0  0
  1  5  1  0  0  0  0
  2  1  1  0  0  0  0
  3  2  2  0  0  0  0
  4  2  1  6  0  0  0
  4 10  5  0  0  0  0
  6  4  5  0  0  0  0
  6  7  5  0  0  0  0
  6 34  1  1  0  0  0
  7 12  1  0  0  0  0
  8  7  5  0  0  0  0
  8 11  1  6  0  0  0
  9  8  5  0  0  0  0
  9 15  1  0  0  0  0
 10  9  5  0  0  0  0
 10 14  1  1  0  0  0
 11 19  1  0  0  0  0
 13 31  1  0  0  0  0
 13 32  1  0  0  0  0
 13 33  1  0  0  0  0
 13 34  1  0  0  0  0
 16 11  2  0  0  0  0
 16 18  1  0  0  0  0
 17 16  1  0  0  0  0
 17 23  1  0  0  0  0
 17 30  1  6  0  0  0
 20 17  1  0  0  0  0
 20 27  1  0  0  0  0
 20 29  1  0  0  0  0
 21 20  1  0  0  0  0
 21 28  1  6  0  0  0
 22 21  1  0  0  0  0
 23 22  1  0  0  0  0
 24 21  1  0  0  0  0
 24 36  2  0  0  0  0
 25 23  1  0  0  0  0
 26 22  1  0  0  0  0
 35 24  1  0  0  0  0
 37 35  1  0  0  0  0
M  END
