42

O          1.20900       -0.58400        0.03100
C          0.10500        0.17300        0.17300
O         -0.97900       -0.38000        0.00100
C          0.22600        1.67100        0.40400
H          2.12300       -0.26500        0.12900
C         -0.93700        2.36500        0.56800
C         -0.93900        3.71100        0.56300
C          0.17400        4.42600        0.29600
C          1.34400        3.75200        0.29400
C          1.37900        2.39800        0.36900
C          0.08700        5.81500       -0.33600
H         -1.90000        4.20200        0.66400
N         -2.23000        1.76600        0.66100
C          2.66100        1.79400        0.30100
H          2.26700        4.31100        0.13400
H         -2.28000        0.80000        0.31700
H         -3.02300        2.30800        0.33500
O          0.64400        6.98700        0.32000
C         -1.42700        7.64700       -0.39200
C         -1.30600        6.22700       -0.85300
C          0.30400        9.51800       -0.07900
H         -2.17500        5.66400       -0.51900
H         -2.11300        8.19900       -1.03400
H         -1.79400        7.67600        0.64400
H         -1.31200        6.17200       -1.94800
H          0.40600        7.97700       -1.47500
C          0.03000        8.07000       -0.44200
H          0.70600        5.71100       -1.24300
N          3.63200        1.16400        0.24200
C         -0.67800       10.43200       -0.28400
C         -0.47300       11.74800       -0.11100
C          0.73600       12.19000        0.28300
C          1.72600       11.30000        0.50400
C          1.50900        9.97600        0.33000
C          0.96700       13.64800        0.44200
H         -1.29700       12.43000       -0.30500
H         -1.66200       10.15300       -0.63600
H          2.33200        9.27900        0.48400
H          2.71100       11.65100        0.80300
O         -0.15000       14.38800        0.29300
O          2.04100       14.18100        0.68300
H          0.15600       15.30800        0.42700
