36

O          1.24500       -0.20900        0.01400
C          0.03700        0.39400       -0.00900
O         -0.99100       -0.26800        0.05000
C          0.04800        1.88900       -0.05100
H          2.02500        0.36100       -0.04900
C         -1.16400        2.49300       -0.07600
C         -1.26500        3.83300       -0.01800
C         -0.16200        4.61400        0.07500
C          1.04600        4.00600        0.03000
C          1.15400        2.66500       -0.02800
C         -0.30100        6.10700        0.30400
H         -2.25800        4.28100       -0.01100
H         -2.07900        1.90500       -0.10600
H          2.15800        2.26300       -0.02000
H          1.96700        4.58100        0.08500
C          0.86700        6.99800       -0.05200
N          0.15500        8.16200       -0.48100
N         -1.16700        7.94300       -0.69400
N         -1.41000        6.73300       -0.44900
C          0.60200        9.48000       -0.13500
H          1.52800        7.16200        0.80800
H          1.46300        6.62200       -0.89100
H         -0.52900        6.23800        1.37200
C          0.94400       10.61200        0.05200
C          1.29200       11.98000        0.12400
C          0.34800       12.92900        0.07500
C          0.70600       14.32300        0.03500
H         -0.70800       12.65600        0.03700
H          2.34600       12.23400        0.14800
C         -0.19000       15.31900        0.00800
C          0.32200       16.69300       -0.02300
H         -1.25800       15.16500        0.01600
H          1.77000       14.55200        0.01100
O         -0.70100       17.55800        0.01800
O          1.48000       17.06200       -0.06600
H         -0.26000       18.43200        0.01700
