
 OpenBabel11042013073D

 60 64  0  0  1  0  0  0  0  0999 V2000
    1.1790    0.9760    0.2030 O   0  0  0  0  0  0  0  0  0  0  0  0
    0.0860    1.7670    0.2130 C   0  0  0  0  0  0  0  0  0  0  0  0
   -1.0340    1.2730    0.2340 O   0  0  0  0  0  0  0  0  0  0  0  0
    0.3400    3.2530    0.1650 C   0  0  2  0  0  0  0  0  0  0  0  0
    2.0390    1.4210    0.1660 H   0  0  0  0  0  0  0  0  0  0  0  0
   -0.7730    4.0130    0.1300 C   0  0  0  0  0  0  0  0  0  0  0  0
   -0.6890    5.3530    0.0260 C   0  0  0  0  0  0  0  0  0  0  0  0
    0.4970    6.0260   -0.0500 C   0  0  1  0  0  0  0  0  0  0  0  0
    1.6050    5.2470    0.0320 C   0  0  0  0  0  0  0  0  0  0  0  0
    1.5320    3.8940    0.1330 C   0  0  0  0  0  0  0  0  0  0  0  0
    0.5270    7.5700   -0.3250 C   0  0  2  0  0  0  0  0  0  0  0  0
   -1.6430    5.8680   -0.0280 H   0  0  0  0  0  0  0  0  0  0  0  0
   -1.7640    3.5540    0.1570 H   0  0  0  0  0  0  0  0  0  0  0  0
    2.4670    3.3450    0.1620 H   0  0  0  0  0  0  0  0  0  0  0  0
    2.5870    5.7070   -0.0270 H   0  0  0  0  0  0  0  0  0  0  0  0
    1.5440    8.6720    0.1720 C   0  0  0  0  0  0  0  0  0  0  0  0
    0.8530   10.0240   -0.2700 C   0  0  1  0  0  0  0  0  0  0  0  0
   -0.5940    9.5990   -0.2100 N   0  0  0  0  0  0  0  0  0  0  0  0
   -0.6940    8.2220    0.1480 N   0  0  0  0  0  0  0  0  0  0  0  0
    1.0090   11.5220    0.4230 C   0  0  1  0  0  0  0  0  0  0  0  0
   -1.5140    7.8090   -0.2960 H   0  0  0  0  0  0  0  0  0  0  0  0
   -1.0860   10.1160    0.5200 H   0  0  0  0  0  0  0  0  0  0  0  0
    2.5140    8.5380   -0.3180 H   0  0  0  0  0  0  0  0  0  0  0  0
    1.1050   10.1630   -1.3300 H   0  0  0  0  0  0  0  0  0  0  0  0
    1.6770    8.6190    1.2580 H   0  0  0  0  0  0  0  0  0  0  0  0
    0.5300    7.6200   -1.4260 H   0  0  0  0  0  0  0  0  0  0  0  0
    2.0190   12.5710    0.0000 O   0  0  0  0  0  0  0  0  0  0  0  0
   -0.0610   13.6770    0.1640 C   0  0  0  0  0  0  0  0  0  0  0  0
   -0.3220   12.2270    0.1450 C   0  0  0  0  0  0  0  0  0  0  0  0
    1.7960   15.3740   -0.1950 C   0  0  2  0  0  0  0  0  0  0  0  0
   -1.1020   11.9830    0.8700 H   0  0  0  0  0  0  0  0  0  0  0  0
   -0.1040   14.0470    1.1940 H   0  0  0  0  0  0  0  0  0  0  0  0
   -0.8330   14.1710   -0.4340 H   0  0  0  0  0  0  0  0  0  0  0  0
   -0.6830   11.9820   -0.8630 H   0  0  0  0  0  0  0  0  0  0  0  0
    1.2870   13.7240   -1.5180 H   0  0  0  0  0  0  0  0  0  0  0  0
    1.3280   13.8270   -0.4250 C   0  0  1  0  0  0  0  0  0  0  0  0
    1.1600   11.3880    1.5010 H   0  0  0  0  0  0  0  0  0  0  0  0
    0.7960   16.3040   -0.1710 C   0  0  0  0  0  0  0  0  0  0  0  0
    0.9720   17.6250   -0.0700 C   0  0  0  0  0  0  0  0  0  0  0  0
    2.1960   18.2030    0.0080 C   0  0  1  0  0  0  0  0  0  0  0  0
    3.2200   17.2940    0.0130 C   0  0  0  0  0  0  0  0  0  0  0  0
    3.0350   15.9330   -0.0780 C   0  0  0  0  0  0  0  0  0  0  0  0
    2.3110   19.7330    0.0400 C   0  0  2  0  0  0  0  0  0  0  0  0
    0.0610   18.2120   -0.0720 H   0  0  0  0  0  0  0  0  0  0  0  0
   -0.2480   16.0250   -0.2590 H   0  0  0  0  0  0  0  0  0  0  0  0
    3.9100   15.2900   -0.0890 H   0  0  0  0  0  0  0  0  0  0  0  0
    4.2430   17.6510    0.0730 H   0  0  0  0  0  0  0  0  0  0  0  0
    1.2060   20.5420    0.0380 C   0  0  0  0  0  0  0  0  0  0  0  0
    1.2640   21.8900    0.0260 C   0  0  0  0  0  0  0  0  0  0  0  0
    2.4540   22.5150    0.0190 C   0  0  1  0  0  0  0  0  0  0  0  0
    3.5710   21.7580    0.0320 C   0  0  0  0  0  0  0  0  0  0  0  0
    3.4970   20.4040    0.0430 C   0  0  0  0  0  0  0  0  0  0  0  0
    2.5700   24.0060   -0.0100 C   0  0  0  0  0  0  0  0  0  0  0  0
    0.3380   22.4640    0.0160 H   0  0  0  0  0  0  0  0  0  0  0  0
    0.1980   20.1480    0.0360 H   0  0  0  0  0  0  0  0  0  0  0  0
    4.4390   19.8660    0.0430 H   0  0  0  0  0  0  0  0  0  0  0  0
    4.5460   22.2460    0.0280 H   0  0  0  0  0  0  0  0  0  0  0  0
    1.3810   24.6420   -0.0230 O   0  0  0  0  0  0  0  0  0  0  0  0
    3.6070   24.6490   -0.0260 O   0  0  0  0  0  0  0  0  0  0  0  0
    1.6210   25.5930   -0.0480 H   0  0  0  0  0  0  0  0  0  0  0  0
  1  5  1  0  0  0  0
  2  1  1  0  0  0  0
  3  2  2  0  0  0  0
  4  2  1  6  0  0  0
  4 10  5  0  0  0  0
  6  4  5  0  0  0  0
  6  7  5  0  0  0  0
  6 13  1  0  0  0  0
  7 12  1  0  0  0  0
  8  7  5  6  0  0  0
  8 11  1  0  0  0  0
  9  8  5  0  0  0  0
  9 15  1  0  0  0  0
 10  9  5  0  0  0  0
 10 14  1  0  0  0  0
 11 19  1  0  0  0  0
 11 26  1  6  0  0  0
 16 11  1  0  0  0  0
 16 23  1  0  0  0  0
 16 25  1  0  0  0  0
 17 16  1  0  0  0  0
 17 24  1  6  0  0  0
 18 17  1  0  0  0  0
 19 18  1  0  0  0  0
 20 17  1  0  0  0  0
 20 29  1  0  0  0  0
 20 37  1  1  0  0  0
 21 19  1  0  0  0  0
 22 18  1  0  0  0  0
 27 20  1  0  0  0  0
 28 36  1  0  0  0  0
 28 33  1  0  0  0  0
 29 28  1  0  0  0  0
 29 34  1  0  0  0  0
 30 36  1  0  0  0  0
 30 38  5  6  0  0  0
 30 42  5  0  0  0  0
 31 29  1  0  0  0  0
 32 28  1  0  0  0  0
 36 27  1  0  0  0  0
 36 35  1  6  0  0  0
 38 39  5  0  0  0  0
 38 45  1  0  0  0  0
 39 44  1  0  0  0  0
 40 39  5  6  0  0  0
 40 43  1  0  0  0  0
 41 40  5  0  0  0  0
 41 47  1  0  0  0  0
 42 41  5  0  0  0  0
 42 46  1  0  0  0  0
 43 48  5  6  0  0  0
 43 52  5  0  0  0  0
 48 49  5  0  0  0  0
 48 55  1  0  0  0  0
 49 54  1  0  0  0  0
 50 49  5  0  0  0  0
 50 53  1  6  0  0  0
 51 50  5  0  0  0  0
 51 57  1  0  0  0  0
 52 51  5  0  0  0  0
 52 56  1  0  0  0  0
 53 59  2  0  0  0  0
 58 53  1  0  0  0  0
 60 58  1  0  0  0  0
M  END
