60

O          1.17900        0.97600        0.20300
C          0.08600        1.76700        0.21300
O         -1.03400        1.27300        0.23400
C          0.34000        3.25300        0.16500
H          2.03900        1.42100        0.16600
C         -0.77300        4.01300        0.13000
C         -0.68900        5.35300        0.02600
C          0.49700        6.02600       -0.05000
C          1.60500        5.24700        0.03200
C          1.53200        3.89400        0.13300
C          0.52700        7.57000       -0.32500
H         -1.64300        5.86800       -0.02800
H         -1.76400        3.55400        0.15700
H          2.46700        3.34500        0.16200
H          2.58700        5.70700       -0.02700
C          1.54400        8.67200        0.17200
C          0.85300       10.02400       -0.27000
N         -0.59400        9.59900       -0.21000
N         -0.69400        8.22200        0.14800
C          1.00900       11.52200        0.42300
H         -1.51400        7.80900       -0.29600
H         -1.08600       10.11600        0.52000
H          2.51400        8.53800       -0.31800
H          1.10500       10.16300       -1.33000
H          1.67700        8.61900        1.25800
H          0.53000        7.62000       -1.42600
O          2.01900       12.57100        0.00000
C         -0.06100       13.67700        0.16400
C         -0.32200       12.22700        0.14500
C          1.79600       15.37400       -0.19500
H         -1.10200       11.98300        0.87000
H         -0.10400       14.04700        1.19400
H         -0.83300       14.17100       -0.43400
H         -0.68300       11.98200       -0.86300
H          1.28700       13.72400       -1.51800
C          1.32800       13.82700       -0.42500
H          1.16000       11.38800        1.50100
C          0.79600       16.30400       -0.17100
C          0.97200       17.62500       -0.07000
C          2.19600       18.20300        0.00800
C          3.22000       17.29400        0.01300
C          3.03500       15.93300       -0.07800
C          2.31100       19.73300        0.04000
H          0.06100       18.21200       -0.07200
H         -0.24800       16.02500       -0.25900
H          3.91000       15.29000       -0.08900
H          4.24300       17.65100        0.07300
C          1.20600       20.54200        0.03800
C          1.26400       21.89000        0.02600
C          2.45400       22.51500        0.01900
C          3.57100       21.75800        0.03200
C          3.49700       20.40400        0.04300
C          2.57000       24.00600       -0.01000
H          0.33800       22.46400        0.01600
H          0.19800       20.14800        0.03600
H          4.43900       19.86600        0.04300
H          4.54600       22.24600        0.02800
O          1.38100       24.64200       -0.02300
O          3.60700       24.64900       -0.02600
H          1.62100       25.59300       -0.04800
