
 OpenBabel11042013073D

 30 30  0  0  1  0  0  0  0  0999 V2000
    0.6600    0.5730   -1.2830 O   0  0  0  0  0  0  0  0  0  0  0  0
   -0.0050    1.2140   -0.2980 C   0  0  0  0  0  0  0  0  0  0  0  0
   -0.6490    0.6320    0.5630 O   0  0  0  0  0  0  0  0  0  0  0  0
    0.1710    2.6960   -0.3370 C   0  0  1  0  0  0  0  0  0  0  0  0
    1.1010    1.1560   -1.9280 H   0  0  0  0  0  0  0  0  0  0  0  0
   -0.9580    3.4290   -0.5230 C   0  0  1  0  0  0  0  0  0  0  0  0
   -0.8520    4.7870   -0.4930 C   0  0  2  0  0  0  0  0  0  0  0  0
    0.3720    5.3520   -0.3610 C   0  0  2  0  0  0  0  0  0  0  0  0
    1.4960    4.6120   -0.2150 C   0  0  1  0  0  0  0  0  0  0  0  0
    1.3990    3.2530   -0.1420 C   0  0  1  0  0  0  0  0  0  0  0  0
    0.4950    6.8320   -0.3360 C   0  0  0  0  0  0  0  0  0  0  0  0
   -2.0040    5.6310   -0.5950 C   0  0  0  0  0  0  0  0  0  0  0  0
   -3.3250    3.0710   -0.0640 C   0  0  0  0  0  0  0  0  0  0  0  0
    2.6270    2.3920    0.1970 C   0  0  0  0  0  0  0  0  0  0  0  0
    2.7790    5.2610   -0.1710 C   0  0  0  0  0  0  0  0  0  0  0  0
    2.4790    1.6220    1.5120 C   0  0  0  0  0  0  0  0  0  0  0  0
    2.3830    0.5480    1.3190 H   0  0  0  0  0  0  0  0  0  0  0  0
    1.6120    1.9450    2.0980 H   0  0  0  0  0  0  0  0  0  0  0  0
    3.3660    1.7610    2.1380 H   0  0  0  0  0  0  0  0  0  0  0  0
    3.5320    3.0000    0.2980 H   0  0  0  0  0  0  0  0  0  0  0  0
    2.8600    1.7080   -0.6270 H   0  0  0  0  0  0  0  0  0  0  0  0
   -2.9250    6.3370   -0.6110 N   0  0  0  0  0  0  0  0  0  0  0  0
   -3.1160    3.4620    0.9370 H   0  0  0  0  0  0  0  0  0  0  0  0
   -3.9240    3.7760   -0.6480 H   0  0  0  0  0  0  0  0  0  0  0  0
   -3.9200    2.1590    0.0420 H   0  0  0  0  0  0  0  0  0  0  0  0
   -2.1380    2.7400   -0.7820 O   0  0  0  0  0  0  0  0  0  0  0  0
    3.8260    5.7550   -0.2200 N   0  0  0  0  0  0  0  0  0  0  0  0
    0.0500    7.3890   -1.4710 O   0  0  0  0  0  0  0  0  0  0  0  0
    0.9530    7.4850    0.5810 O   0  0  0  0  0  0  0  0  0  0  0  0
    0.1170    8.3580   -1.3200 H   0  0  0  0  0  0  0  0  0  0  0  0
  1  5  1  0  0  0  0
  2  1  1  0  0  0  0
  3  2  2  0  0  0  0
  4  2  1  1  0  0  0
  4 10  5  0  0  0  0
  6  4  5  0  0  0  0
  6  7  5  0  0  0  0
  6 26  1  6  0  0  0
  7 12  1  1  0  0  0
  8  7  5  0  0  0  0
  8 11  1  1  0  0  0
  9  8  5  0  0  0  0
  9 15  1  6  0  0  0
 10  9  5  0  0  0  0
 10 14  1  1  0  0  0
 11 29  2  0  0  0  0
 12 22  3  0  0  0  0
 13 23  1  0  0  0  0
 13 24  1  0  0  0  0
 13 25  1  0  0  0  0
 13 26  1  0  0  0  0
 14 20  1  0  0  0  0
 14 21  1  0  0  0  0
 15 27  3  0  0  0  0
 16 17  1  0  0  0  0
 16 18  1  0  0  0  0
 16 19  1  0  0  0  0
 16 14  1  0  0  0  0
 28 11  1  0  0  0  0
 30 28  1  0  0  0  0
M  END
