30

O          0.66000        0.57300       -1.28300
C         -0.00500        1.21400       -0.29800
O         -0.64900        0.63200        0.56300
C          0.17100        2.69600       -0.33700
H          1.10100        1.15600       -1.92800
C         -0.95800        3.42900       -0.52300
C         -0.85200        4.78700       -0.49300
C          0.37200        5.35200       -0.36100
C          1.49600        4.61200       -0.21500
C          1.39900        3.25300       -0.14200
C          0.49500        6.83200       -0.33600
C         -2.00400        5.63100       -0.59500
C         -3.32500        3.07100       -0.06400
C          2.62700        2.39200        0.19700
C          2.77900        5.26100       -0.17100
C          2.47900        1.62200        1.51200
H          2.38300        0.54800        1.31900
H          1.61200        1.94500        2.09800
H          3.36600        1.76100        2.13800
H          3.53200        3.00000        0.29800
H          2.86000        1.70800       -0.62700
N         -2.92500        6.33700       -0.61100
H         -3.11600        3.46200        0.93700
H         -3.92400        3.77600       -0.64800
H         -3.92000        2.15900        0.04200
O         -2.13800        2.74000       -0.78200
N          3.82600        5.75500       -0.22000
O          0.05000        7.38900       -1.47100
O          0.95300        7.48500        0.58100
H          0.11700        8.35800       -1.32000
