34

O          1.48600        0.28500       -0.06800
C          0.28900        0.91500       -0.07000
O         -0.72500        0.23100       -0.09400
C          0.30400        2.43700       -0.05400
H          2.29400        0.81100       -0.13900
C         -0.85700        3.17000       -0.06700
C         -0.77400        4.53400       -0.08300
C          0.40400        5.19900       -0.06300
C          1.52500        4.44500       -0.02600
C          1.47800        3.10700       -0.02600
C          0.58100        6.66100       -0.06100
H         -1.68700        5.12000       -0.11100
C         -2.22500        2.47300       -0.02900
H          2.44800        2.62200        0.01000
H          2.50600        4.92200        0.00400
C         -0.31600        7.66500       -0.04800
C          0.10700        9.06700       -0.03000
H         -1.38500        7.46600       -0.04300
H          1.63000        6.96400       -0.06500
C         -0.73900       10.10800       -0.01700
C         -0.31300       11.47300       -0.00100
H         -1.81200        9.94600       -0.01900
H          1.18000        9.25800       -0.02400
C         -0.07700       12.65200        0.00600
C          0.10000       14.08200        0.01100
C         -3.47500        3.32600        0.16000
H         -3.40700        3.93300        1.06800
H         -3.64400        3.98000       -0.70000
H         -4.35300        2.67800        0.26100
H         -2.23000        1.77300        0.81800
H         -2.35800        1.89500       -0.95300
O         -1.05800       14.77200        0.00400
O          1.18700       14.63600        0.01600
H         -0.77900       15.71000        0.00400
