41

O          1.90100       -0.51100        0.02900
C          0.64600       -0.03400       -0.13500
O         -0.27900       -0.76500       -0.44300
C          0.50900        1.44600        0.06100
H          2.53100        0.11100        0.41900
C         -0.74000        1.88800        0.31000
C         -1.01300        3.21000        0.38500
C         -0.04800        4.14200        0.17400
C          1.21900        3.67300        0.00200
C          1.49800        2.35200       -0.05900
C         -0.27700        5.63000       -0.17900
N         -2.38900        3.48700        0.63400
H         -1.54700        1.16600        0.42500
H          2.52100        2.05600       -0.27800
H          2.03200        4.37800       -0.17200
O          0.60900        6.69300        0.32500
C         -1.39300        7.72000       -0.38300
C         -1.65100        6.26500       -0.07900
C          0.53700        9.31400       -0.16500
H         -2.37400        5.83200       -0.77600
H         -1.84300        8.04600       -1.32400
H         -1.85200        8.31000        0.41800
H         -2.04100        6.20800        0.94300
H          0.48400        7.65600       -1.44700
C          0.13500        7.85300       -0.42300
H         -0.05500        5.60000       -1.26200
H         -2.65000        4.41800        0.91500
H         -3.00300        3.17000       -0.11300
C          1.94900        9.76600        0.08000
N          1.66900       11.01100        0.78600
N          0.44000       10.92600        1.40700
N         -0.15400        9.89700        0.99900
C          1.85300       12.32600        0.15300
H          2.47900        9.10000        0.76900
H          2.54300        9.89200       -0.83000
H          0.17400        9.86300       -1.05000
C          1.75700       13.49100       -0.13500
C          1.39300       14.87100       -0.24400
O          0.05800       15.04300       -0.32700
O          2.17600       15.79900       -0.17200
H         -0.07700       16.00800       -0.22900
