31

O          1.30500       -0.32900        0.01900
C          0.12300        0.31200        0.00100
O         -0.91900       -0.32900       -0.05300
C          0.16500        1.81500        0.05300
H          2.08600        0.25200        0.04800
C         -1.05900        2.36400        0.19200
C         -1.23200        3.70000        0.23400
C         -0.20900        4.58100        0.11200
C          1.01700        3.99300        0.00200
C          1.22700        2.65200       -0.02400
C         -0.39100        6.09700        0.09900
H         -2.26300        3.99000        0.36600
H         -1.95100        1.74400        0.27400
Br         3.02600        2.09100       -0.18900
H          1.91500        4.59300       -0.07600
C         -1.58300        6.78200        0.12000
C         -1.61100        8.13700        0.14300
C         -0.49000        8.88200        0.08300
C          0.68900        8.23900       -0.02300
C          0.71800        6.89300        0.02300
C         -0.58600       10.37300        0.10200
H         -2.57800        8.63900        0.19300
C         -2.88600        6.19200        0.08200
H          1.71400        6.47000       -0.01400
N          1.92800        8.91400       -0.20800
H          2.63300        8.43000       -0.75500
H          1.85900        9.89800       -0.47600
N         -3.96600        5.77000        0.01600
O         -1.85300       10.82900        0.04800
O          0.34000       11.16600        0.14100
H         -1.74900       11.80400        0.06700
