
 OpenBabel11042013073D

 31 32  0  0  1  0  0  0  0  0999 V2000
    1.3050   -0.3290    0.0190 O   0  0  0  0  0  0  0  0  0  0  0  0
    0.1230    0.3120    0.0010 C   0  0  0  0  0  0  0  0  0  0  0  0
   -0.9190   -0.3290   -0.0530 O   0  0  0  0  0  0  0  0  0  0  0  0
    0.1650    1.8150    0.0530 C   0  0  2  0  0  0  0  0  0  0  0  0
    2.0860    0.2520    0.0480 H   0  0  0  0  0  0  0  0  0  0  0  0
   -1.0590    2.3640    0.1920 C   0  0  0  0  0  0  0  0  0  0  0  0
   -1.2320    3.7000    0.2340 C   0  0  0  0  0  0  0  0  0  0  0  0
   -0.2090    4.5810    0.1120 C   0  0  2  0  0  0  0  0  0  0  0  0
    1.0170    3.9930    0.0020 C   0  0  0  0  0  0  0  0  0  0  0  0
    1.2270    2.6520   -0.0240 C   0  0  2  0  0  0  0  0  0  0  0  0
   -0.3910    6.0970    0.0990 C   0  0  2  0  0  0  0  0  0  0  0  0
   -2.2630    3.9900    0.3660 H   0  0  0  0  0  0  0  0  0  0  0  0
   -1.9510    1.7440    0.2740 H   0  0  0  0  0  0  0  0  0  0  0  0
    3.0260    2.0910   -0.1890 Br  0  0  0  0  0  0  0  0  0  0  0  0
    1.9150    4.5930   -0.0760 H   0  0  0  0  0  0  0  0  0  0  0  0
   -1.5830    6.7820    0.1200 C   0  0  1  0  0  0  0  0  0  0  0  0
   -1.6110    8.1370    0.1430 C   0  0  0  0  0  0  0  0  0  0  0  0
   -0.4900    8.8820    0.0830 C   0  0  1  0  0  0  0  0  0  0  0  0
    0.6890    8.2390   -0.0230 C   0  0  1  0  0  0  0  0  0  0  0  0
    0.7180    6.8930    0.0230 C   0  0  0  0  0  0  0  0  0  0  0  0
   -0.5860   10.3730    0.1020 C   0  0  0  0  0  0  0  0  0  0  0  0
   -2.5780    8.6390    0.1930 H   0  0  0  0  0  0  0  0  0  0  0  0
   -2.8860    6.1920    0.0820 C   0  0  0  0  0  0  0  0  0  0  0  0
    1.7140    6.4700   -0.0140 H   0  0  0  0  0  0  0  0  0  0  0  0
    1.9280    8.9140   -0.2080 N   0  0  0  0  0  0  0  0  0  0  0  0
    2.6330    8.4300   -0.7550 H   0  0  0  0  0  0  0  0  0  0  0  0
    1.8590    9.8980   -0.4760 H   0  0  0  0  0  0  0  0  0  0  0  0
   -3.9660    5.7700    0.0160 N   0  0  0  0  0  0  0  0  0  0  0  0
   -1.8530   10.8290    0.0480 O   0  0  0  0  0  0  0  0  0  0  0  0
    0.3400   11.1660    0.1410 O   0  0  0  0  0  0  0  0  0  0  0  0
   -1.7490   11.8040    0.0670 H   0  0  0  0  0  0  0  0  0  0  0  0
  1  5  1  0  0  0  0
  2  1  1  0  0  0  0
  3  2  2  0  0  0  0
  4  2  1  6  0  0  0
  4 10  5  0  0  0  0
  6  4  5  0  0  0  0
  6  7  5  0  0  0  0
  6 13  1  0  0  0  0
  7 12  1  0  0  0  0
  8  7  5  1  0  0  0
  8 11  1  0  0  0  0
  9  8  5  0  0  0  0
  9 15  1  0  0  0  0
 10  9  5  0  0  0  0
 10 14  1  6  0  0  0
 11 20  5  6  0  0  0
 16 11  5  0  0  0  0
 16 17  5  0  0  0  0
 16 23  1  6  0  0  0
 17 22  1  0  0  0  0
 18 17  5  0  0  0  0
 18 21  1  6  0  0  0
 19 18  5  0  0  0  0
 19 25  1  6  0  0  0
 20 19  5  0  0  0  0
 20 24  1  0  0  0  0
 21 30  2  0  0  0  0
 23 28  3  0  0  0  0
 25 26  1  0  0  0  0
 25 27  1  0  0  0  0
 29 21  1  0  0  0  0
 31 29  1  0  0  0  0
M  END
