50

O          1.49300       -0.43800        0.26600
C          0.40500        0.05900       -0.37000
O         -0.45000       -0.67700       -0.83800
C          0.34000        1.56000       -0.39100
H          2.04100        0.22600        0.72200
C         -0.86400        2.19000       -0.27900
C         -0.84700        3.53600       -0.27800
C          0.27900        4.28200       -0.28100
C          1.45000        3.62900       -0.43600
C          1.47200        2.28100       -0.51800
C          0.19500        5.74800        0.11300
H         -1.79800        4.04600       -0.19100
C         -2.20700        1.49300       -0.03600
H          2.44200        1.80200       -0.63400
H          2.38400        4.19100       -0.44700
C         -3.24500        2.32000        0.74500
H         -2.79600        2.79700        1.62600
H         -4.06600        1.68900        1.09200
H         -3.68600        3.10600        0.11900
H         -2.04700        0.59200        0.56400
H         -2.64400        1.19100       -0.99500
O          0.97300        6.75300       -0.58600
C         -0.95700        7.84300        0.12500
C         -1.20700        6.36500        0.24100
C          1.01500        9.30300       -0.30100
H         -1.89500        6.07000       -0.55900
H         -1.43900        8.40600        0.92900
H         -1.36700        8.20200       -0.82900
H         -1.66200        6.09700        1.20100
H          0.95100        7.80300        1.16100
C          0.56500        7.93500        0.13800
H          0.61400        5.72600        1.13400
C          0.70100       10.29100        0.56500
C          0.64700       11.77800        0.49700
H          0.26600        9.96800        1.51400
H          1.40400        9.47900       -1.29700
O          1.59100       12.43900       -0.33500
C         -0.47700       13.64700       -0.33000
C         -0.70500       12.19100       -0.05300
C          1.62300       14.95200        0.01500
H         -1.53100       12.00600        0.64000
H         -0.71900       14.22600        0.57100
H         -1.10500       14.02700       -1.13900
H         -0.92300       11.67500       -0.99700
H          1.16700       13.85000       -1.75200
C          1.01400       13.72000       -0.67600
H          0.78600       12.16600        1.51500
O          0.88700       16.07100       -0.20200
O          2.63400       15.01300        0.69300
H          1.34500       16.77300        0.30700
