61

O          1.22100        3.54000       -0.11300
C          0.24200        4.47000       -0.16700
O         -0.92300        4.09900       -0.19800
C          0.65500        5.95700       -0.17400
H          2.14400        3.82300       -0.07600
C         -0.36400        6.84400       -0.16000
C         -0.16900        8.19200       -0.12300
C          1.06100        8.84300       -0.05500
C          2.06600        7.90800       -0.08600
C          1.88600        6.52800       -0.13700
C          1.18800       10.63600        0.17700
H         -1.08500        8.76600       -0.08000
H         -1.38600        6.44600       -0.18200
H          2.74600        5.86900       -0.13100
H          3.11500        8.25100       -0.03500
C          2.32000       11.87500       -0.16500
C          1.60100       13.44200        0.17000
N          0.14600       12.95500        0.05100
N          0.03900       11.39800       -0.36700
C          1.91900       15.36000        0.18900
H         -0.82500       11.00400        0.01900
H         -0.31400       13.48000       -0.69700
H          3.18500       11.70100        0.48400
H          1.73200       13.35700        1.26200
H          2.58800       11.79100       -1.22400
H          1.09900       10.63200        1.27300
C          3.15500       16.58500       -0.12800
C          2.56500       18.27400        0.19800
N          1.09300       17.89500        0.11900
N          0.83000       16.28200       -0.32800
C          2.99700       20.12800        0.00600
H         -0.05600       16.00400        0.11000
H          0.66500       18.46300       -0.61800
H          3.43900       16.53200       -1.18400
H          2.75900       18.28500        1.28100
H          4.00200       16.40000        0.54000
H          1.83300       15.46400        1.28300
C          2.07600       21.17900        0.03800
C          2.33500       22.56600       -0.01800
C          3.55400       23.18000       -0.11700
C          4.49700       22.15000       -0.14600
C          4.23000       20.77000       -0.08500
C          3.83700       24.97800       -0.28700
H          1.47600       23.23900        0.01200
H          1.02400       20.92300        0.13000
H          5.12400       20.13200       -0.10400
H          5.54300       22.45300       -0.22100
C          5.12000       25.96700       -0.05000
C          4.63500       27.44000       -0.35000
N          3.18600       27.36100       -0.07300
N          2.85400       25.92800        0.37100
C          5.29700       28.71100        0.31200
H          1.91300       25.73200        0.02700
H          2.93200       28.08600        0.61800
H          5.94900       25.75600       -0.73400
H          4.75300       27.66400       -1.42200
H          5.49300       25.94800        0.98200
H          3.65000       25.09000       -1.36800
O          4.47100       29.81000        0.38200
O          6.47400       28.88100        0.60900
H          5.03700       30.55800        0.63100
