
 OpenBabel11042013073D

 61 65  0  0  1  0  0  0  0  0999 V2000
    1.2210    3.5400   -0.1130 O   0  0  0  0  0  0  0  0  0  0  0  0
    0.2420    4.4700   -0.1670 C   0  0  0  0  0  0  0  0  0  0  0  0
   -0.9230    4.0990   -0.1980 O   0  0  0  0  0  0  0  0  0  0  0  0
    0.6550    5.9570   -0.1740 C   0  0  1  0  0  0  0  0  0  0  0  0
    2.1440    3.8230   -0.0760 H   0  0  0  0  0  0  0  0  0  0  0  0
   -0.3640    6.8440   -0.1600 C   0  0  0  0  0  0  0  0  0  0  0  0
   -0.1690    8.1920   -0.1230 C   0  0  0  0  0  0  0  0  0  0  0  0
    1.0610    8.8430   -0.0550 C   0  0  2  0  0  0  0  0  0  0  0  0
    2.0660    7.9080   -0.0860 C   0  0  0  0  0  0  0  0  0  0  0  0
    1.8860    6.5280   -0.1370 C   0  0  0  0  0  0  0  0  0  0  0  0
    1.1880   10.6360    0.1770 C   0  0  1  0  0  0  0  0  0  0  0  0
   -1.0850    8.7660   -0.0800 H   0  0  0  0  0  0  0  0  0  0  0  0
   -1.3860    6.4460   -0.1820 H   0  0  0  0  0  0  0  0  0  0  0  0
    2.7460    5.8690   -0.1310 H   0  0  0  0  0  0  0  0  0  0  0  0
    3.1150    8.2510   -0.0350 H   0  0  0  0  0  0  0  0  0  0  0  0
    2.3200   11.8750   -0.1650 C   0  0  0  0  0  0  0  0  0  0  0  0
    1.6010   13.4420    0.1700 C   0  0  2  0  0  0  0  0  0  0  0  0
    0.1460   12.9550    0.0510 N   0  0  0  0  0  0  0  0  0  0  0  0
    0.0390   11.3980   -0.3670 N   0  0  0  0  0  0  0  0  0  0  0  0
    1.9190   15.3600    0.1890 C   0  0  1  0  0  0  0  0  0  0  0  0
   -0.8250   11.0040    0.0190 H   0  0  0  0  0  0  0  0  0  0  0  0
   -0.3140   13.4800   -0.6970 H   0  0  0  0  0  0  0  0  0  0  0  0
    3.1850   11.7010    0.4840 H   0  0  0  0  0  0  0  0  0  0  0  0
    1.7320   13.3570    1.2620 H   0  0  0  0  0  0  0  0  0  0  0  0
    2.5880   11.7910   -1.2240 H   0  0  0  0  0  0  0  0  0  0  0  0
    1.0990   10.6320    1.2730 H   0  0  0  0  0  0  0  0  0  0  0  0
    3.1550   16.5850   -0.1280 C   0  0  0  0  0  0  0  0  0  0  0  0
    2.5650   18.2740    0.1980 C   0  0  2  0  0  0  0  0  0  0  0  0
    1.0930   17.8950    0.1190 N   0  0  0  0  0  0  0  0  0  0  0  0
    0.8300   16.2820   -0.3280 N   0  0  0  0  0  0  0  0  0  0  0  0
    2.9970   20.1280    0.0060 C   0  0  1  0  0  0  0  0  0  0  0  0
   -0.0560   16.0040    0.1100 H   0  0  0  0  0  0  0  0  0  0  0  0
    0.6650   18.4630   -0.6180 H   0  0  0  0  0  0  0  0  0  0  0  0
    3.4390   16.5320   -1.1840 H   0  0  0  0  0  0  0  0  0  0  0  0
    2.7590   18.2850    1.2810 H   0  0  0  0  0  0  0  0  0  0  0  0
    4.0020   16.4000    0.5400 H   0  0  0  0  0  0  0  0  0  0  0  0
    1.8330   15.4640    1.2830 H   0  0  0  0  0  0  0  0  0  0  0  0
    2.0760   21.1790    0.0380 C   0  0  0  0  0  0  0  0  0  0  0  0
    2.3350   22.5660   -0.0180 C   0  0  0  0  0  0  0  0  0  0  0  0
    3.5540   23.1800   -0.1170 C   0  0  1  0  0  0  0  0  0  0  0  0
    4.4970   22.1500   -0.1460 C   0  0  0  0  0  0  0  0  0  0  0  0
    4.2300   20.7700   -0.0850 C   0  0  0  0  0  0  0  0  0  0  0  0
    3.8370   24.9780   -0.2870 C   0  0  2  0  0  0  0  0  0  0  0  0
    1.4760   23.2390    0.0120 H   0  0  0  0  0  0  0  0  0  0  0  0
    1.0240   20.9230    0.1300 H   0  0  0  0  0  0  0  0  0  0  0  0
    5.1240   20.1320   -0.1040 H   0  0  0  0  0  0  0  0  0  0  0  0
    5.5430   22.4530   -0.2210 H   0  0  0  0  0  0  0  0  0  0  0  0
    5.1200   25.9670   -0.0500 C   0  0  0  0  0  0  0  0  0  0  0  0
    4.6350   27.4400   -0.3500 C   0  0  1  0  0  0  0  0  0  0  0  0
    3.1860   27.3610   -0.0730 N   0  0  0  0  0  0  0  0  0  0  0  0
    2.8540   25.9280    0.3710 N   0  0  0  0  0  0  0  0  0  0  0  0
    5.2970   28.7110    0.3120 C   0  0  0  0  0  0  0  0  0  0  0  0
    1.9130   25.7320    0.0270 H   0  0  0  0  0  0  0  0  0  0  0  0
    2.9320   28.0860    0.6180 H   0  0  0  0  0  0  0  0  0  0  0  0
    5.9490   25.7560   -0.7340 H   0  0  0  0  0  0  0  0  0  0  0  0
    4.7530   27.6640   -1.4220 H   0  0  0  0  0  0  0  0  0  0  0  0
    5.4930   25.9480    0.9820 H   0  0  0  0  0  0  0  0  0  0  0  0
    3.6500   25.0900   -1.3680 H   0  0  0  0  0  0  0  0  0  0  0  0
    4.4710   29.8100    0.3820 O   0  0  0  0  0  0  0  0  0  0  0  0
    6.4740   28.8810    0.6090 O   0  0  0  0  0  0  0  0  0  0  0  0
    5.0370   30.5580    0.6310 H   0  0  0  0  0  0  0  0  0  0  0  0
  1  5  1  0  0  0  0
  2  1  1  0  0  0  0
  3  2  2  0  0  0  0
  4  2  1  1  0  0  0
  4 10  5  0  0  0  0
  6  4  5  0  0  0  0
  6  7  5  0  0  0  0
  6 13  1  0  0  0  0
  7 12  1  0  0  0  0
  8  7  5  1  0  0  0
  8 11  1  0  0  0  0
  9  8  5  0  0  0  0
  9 15  1  0  0  0  0
 10  9  5  0  0  0  0
 10 14  1  0  0  0  0
 11 19  1  0  0  0  0
 11 26  1  1  0  0  0
 16 11  1  0  0  0  0
 16 23  1  0  0  0  0
 16 25  1  0  0  0  0
 17 16  1  0  0  0  0
 17 24  1  1  0  0  0
 18 17  1  0  0  0  0
 19 18  1  0  0  0  0
 20 17  1  0  0  0  0
 20 30  1  0  0  0  0
 20 37  1  1  0  0  0
 21 19  1  0  0  0  0
 22 18  1  0  0  0  0
 27 20  1  0  0  0  0
 27 34  1  0  0  0  0
 27 36  1  0  0  0  0
 28 27  1  0  0  0  0
 28 35  1  1  0  0  0
 29 28  1  0  0  0  0
 30 29  1  0  0  0  0
 31 28  1  0  0  0  0
 31 38  5  1  0  0  0
 31 42  5  0  0  0  0
 32 30  1  0  0  0  0
 33 29  1  0  0  0  0
 38 39  5  0  0  0  0
 38 45  1  0  0  0  0
 39 44  1  0  0  0  0
 40 39  5  6  0  0  0
 40 43  1  0  0  0  0
 41 40  5  0  0  0  0
 41 47  1  0  0  0  0
 42 41  5  0  0  0  0
 42 46  1  0  0  0  0
 43 51  1  0  0  0  0
 43 58  1  6  0  0  0
 48 43  1  0  0  0  0
 48 55  1  0  0  0  0
 48 57  1  0  0  0  0
 49 48  1  0  0  0  0
 49 56  1  6  0  0  0
 50 49  1  0  0  0  0
 51 50  1  0  0  0  0
 52 49  1  0  0  0  0
 52 60  2  0  0  0  0
 53 51  1  0  0  0  0
 54 50  1  0  0  0  0
 59 52  1  0  0  0  0
 61 59  1  0  0  0  0
M  END
