
 OpenBabel11042013073D

 39 40  0  0  1  0  0  0  0  0999 V2000
    0.0840    0.5380   -0.6120 O   0  0  0  0  0  0  0  0  0  0  0  0
   -0.9170    1.3310   -0.1830 C   0  0  0  0  0  0  0  0  0  0  0  0
   -2.0110    0.8660    0.1140 O   0  0  0  0  0  0  0  0  0  0  0  0
   -0.5940    2.8040   -0.1300 C   0  0  2  0  0  0  0  0  0  0  0  0
    0.8740    1.0530   -0.8680 H   0  0  0  0  0  0  0  0  0  0  0  0
   -1.6700    3.5970   -0.0220 C   0  0  0  0  0  0  0  0  0  0  0  0
   -1.5700    4.9420   -0.0300 C   0  0  1  0  0  0  0  0  0  0  0  0
   -0.3410    5.5540   -0.1230 C   0  0  1  0  0  0  0  0  0  0  0  0
    0.7680    4.7270   -0.1610 C   0  0  2  0  0  0  0  0  0  0  0  0
    0.6340    3.3560   -0.1960 C   0  0  2  0  0  0  0  0  0  0  0  0
   -0.3190    7.1320   -0.2590 C   0  0  2  0  0  0  0  0  0  0  0  0
   -2.9080    5.6600    0.0300 C   0  0  0  0  0  0  0  0  0  0  0  0
   -2.6570    3.1410    0.0470 H   0  0  0  0  0  0  0  0  0  0  0  0
    2.5470    2.2110    0.6910 C   0  0  0  0  0  0  0  0  0  0  0  0
    2.1710    5.2780   -0.1440 C   0  0  0  0  0  0  0  0  0  0  0  0
    2.2840    5.9420    0.7200 H   0  0  0  0  0  0  0  0  0  0  0  0
    2.9550    4.5380    0.0110 H   0  0  0  0  0  0  0  0  0  0  0  0
    2.4110    5.7680   -1.0880 H   0  0  0  0  0  0  0  0  0  0  0  0
    0.9240    8.0070   -0.5450 C   0  0  0  0  0  0  0  0  0  0  0  0
    0.7630    9.2720    0.2900 C   0  0  2  0  0  0  0  0  0  0  0  0
   -0.6340    9.2460    0.7390 N   0  0  0  0  0  0  0  0  0  0  0  0
   -0.9420    7.8400    0.8790 N   0  0  0  0  0  0  0  0  0  0  0  0
    1.1060   10.5500   -0.4660 C   0  0  0  0  0  0  0  0  0  0  0  0
   -1.9530    7.7070    0.8730 H   0  0  0  0  0  0  0  0  0  0  0  0
   -1.2090    9.7300    0.0380 H   0  0  0  0  0  0  0  0  0  0  0  0
    1.8830    7.5960   -0.2570 H   0  0  0  0  0  0  0  0  0  0  0  0
    1.4060    9.2410    1.1780 H   0  0  0  0  0  0  0  0  0  0  0  0
    0.9840    8.2290   -1.6180 H   0  0  0  0  0  0  0  0  0  0  0  0
   -0.9520    7.3180   -1.1430 H   0  0  0  0  0  0  0  0  0  0  0  0
    2.4440    1.1460    0.9160 H   0  0  0  0  0  0  0  0  0  0  0  0
    3.5890    2.3850    0.4020 H   0  0  0  0  0  0  0  0  0  0  0  0
    2.3110    2.8030    1.5800 H   0  0  0  0  0  0  0  0  0  0  0  0
    1.7290    2.5300   -0.4390 O   0  0  0  0  0  0  0  0  0  0  0  0
   -3.7480    4.9980   -0.2120 H   0  0  0  0  0  0  0  0  0  0  0  0
   -2.9680    6.4800   -0.6890 H   0  0  0  0  0  0  0  0  0  0  0  0
   -3.0950    6.0280    1.0450 H   0  0  0  0  0  0  0  0  0  0  0  0
    0.1350   11.4890   -0.4530 O   0  0  0  0  0  0  0  0  0  0  0  0
    2.1620   10.7760   -1.0380 O   0  0  0  0  0  0  0  0  0  0  0  0
    0.5500   12.2730   -0.8700 H   0  0  0  0  0  0  0  0  0  0  0  0
  1  5  1  0  0  0  0
  2  1  1  0  0  0  0
  3  2  2  0  0  0  0
  4  2  1  6  0  0  0
  4 10  5  0  0  0  0
  6  4  5  0  0  0  0
  6  7  5  0  0  0  0
  6 13  1  0  0  0  0
  7 12  1  6  0  0  0
  8  7  5  0  0  0  0
  8 11  1  6  0  0  0
  9  8  5  0  0  0  0
  9 15  1  1  0  0  0
 10  9  5  0  0  0  0
 10 33  1  6  0  0  0
 11 22  1  0  0  0  0
 11 29  1  6  0  0  0
 12 34  1  0  0  0  0
 12 35  1  0  0  0  0
 12 36  1  0  0  0  0
 14 30  1  0  0  0  0
 14 31  1  0  0  0  0
 14 32  1  0  0  0  0
 14 33  1  0  0  0  0
 15 16  1  0  0  0  0
 15 17  1  0  0  0  0
 15 18  1  0  0  0  0
 19 11  1  0  0  0  0
 19 26  1  0  0  0  0
 19 28  1  0  0  0  0
 20 19  1  0  0  0  0
 20 27  1  1  0  0  0
 21 20  1  0  0  0  0
 22 21  1  0  0  0  0
 23 20  1  0  0  0  0
 23 38  2  0  0  0  0
 24 22  1  0  0  0  0
 25 21  1  0  0  0  0
 37 23  1  0  0  0  0
 39 37  1  0  0  0  0
M  END
