32

O          1.30000        0.74100        0.08100
C          0.10700        1.36900       -0.04600
O         -0.90500        0.69100       -0.14100
C          0.14500        2.88500       -0.06000
H          2.09800        1.26500        0.22900
C         -1.02600        3.58000       -0.05200
C         -1.00400        4.93100       -0.05400
C          0.15200        5.63000       -0.06000
C          1.32100        4.93900       -0.08400
C          1.30200        3.58900       -0.09300
C          0.10200        7.06500        0.01400
H         -1.94800        5.47500       -0.03900
O         -2.24800        2.93400       -0.02300
H          2.26500        3.09300       -0.12000
Br         3.00600        5.80500       -0.10100
C          0.07600        8.26100        0.17800
C          0.03700        9.70200        0.52300
H         -3.01800        3.52400       -0.03800
C          1.29400       10.46600        0.14200
C          0.82200       11.74700       -0.52100
N         -0.64200       11.64300       -0.67000
N         -1.09400       10.39000       -0.10700
C          1.21800       13.01900        0.23900
H         -1.50100        9.79900       -0.83600
H         -1.07700       12.45700       -0.21000
H          1.91900        9.90100       -0.56000
H          1.26500       11.84900       -1.51800
H          1.89700       10.66100        1.03700
H         -0.09900        9.77500        1.60900
O          0.25600       13.97400        0.23600
O          2.30200       13.25500        0.74900
H          0.68100       14.75700        0.64700
