
 OpenBabel11042013073D

 32 33  0  0  1  0  0  0  0  0999 V2000
    1.3000    0.7410    0.0810 O   0  0  0  0  0  0  0  0  0  0  0  0
    0.1070    1.3690   -0.0460 C   0  0  0  0  0  0  0  0  0  0  0  0
   -0.9050    0.6910   -0.1410 O   0  0  0  0  0  0  0  0  0  0  0  0
    0.1450    2.8850   -0.0600 C   0  0  2  0  0  0  0  0  0  0  0  0
    2.0980    1.2650    0.2290 H   0  0  0  0  0  0  0  0  0  0  0  0
   -1.0260    3.5800   -0.0520 C   0  0  2  0  0  0  0  0  0  0  0  0
   -1.0040    4.9310   -0.0540 C   0  0  0  0  0  0  0  0  0  0  0  0
    0.1520    5.6300   -0.0600 C   0  0  2  0  0  0  0  0  0  0  0  0
    1.3210    4.9390   -0.0840 C   0  0  2  0  0  0  0  0  0  0  0  0
    1.3020    3.5890   -0.0930 C   0  0  0  0  0  0  0  0  0  0  0  0
    0.1020    7.0650    0.0140 C   0  0  0  0  0  0  0  0  0  0  0  0
   -1.9480    5.4750   -0.0390 H   0  0  0  0  0  0  0  0  0  0  0  0
   -2.2480    2.9340   -0.0230 O   0  0  0  0  0  0  0  0  0  0  0  0
    2.2650    3.0930   -0.1200 H   0  0  0  0  0  0  0  0  0  0  0  0
    3.0060    5.8050   -0.1010 Br  0  0  0  0  0  0  0  0  0  0  0  0
    0.0760    8.2610    0.1780 C   0  0  0  0  0  0  0  0  0  0  0  0
    0.0370    9.7020    0.5230 C   0  0  1  0  0  0  0  0  0  0  0  0
   -3.0180    3.5240   -0.0380 H   0  0  0  0  0  0  0  0  0  0  0  0
    1.2940   10.4660    0.1420 C   0  0  0  0  0  0  0  0  0  0  0  0
    0.8220   11.7470   -0.5210 C   0  0  1  0  0  0  0  0  0  0  0  0
   -0.6420   11.6430   -0.6700 N   0  0  0  0  0  0  0  0  0  0  0  0
   -1.0940   10.3900   -0.1070 N   0  0  0  0  0  0  0  0  0  0  0  0
    1.2180   13.0190    0.2390 C   0  0  0  0  0  0  0  0  0  0  0  0
   -1.5010    9.7990   -0.8360 H   0  0  0  0  0  0  0  0  0  0  0  0
   -1.0770   12.4570   -0.2100 H   0  0  0  0  0  0  0  0  0  0  0  0
    1.9190    9.9010   -0.5600 H   0  0  0  0  0  0  0  0  0  0  0  0
    1.2650   11.8490   -1.5180 H   0  0  0  0  0  0  0  0  0  0  0  0
    1.8970   10.6610    1.0370 H   0  0  0  0  0  0  0  0  0  0  0  0
   -0.0990    9.7750    1.6090 H   0  0  0  0  0  0  0  0  0  0  0  0
    0.2560   13.9740    0.2360 O   0  0  0  0  0  0  0  0  0  0  0  0
    2.3020   13.2550    0.7490 O   0  0  0  0  0  0  0  0  0  0  0  0
    0.6810   14.7570    0.6470 H   0  0  0  0  0  0  0  0  0  0  0  0
  1  5  1  0  0  0  0
  2  1  1  0  0  0  0
  3  2  2  0  0  0  0
  4  2  1  6  0  0  0
  4 10  5  0  0  0  0
  6  4  5  0  0  0  0
  6  7  5  0  0  0  0
  6 13  1  1  0  0  0
  7 12  1  0  0  0  0
  8  7  5  0  0  0  0
  8 11  1  1  0  0  0
  9  8  5  0  0  0  0
  9 15  1  1  0  0  0
 10  9  5  0  0  0  0
 10 14  1  0  0  0  0
 13 18  1  0  0  0  0
 16 11  3  0  0  0  0
 17 16  1  0  0  0  0
 17 22  1  0  0  0  0
 17 29  1  1  0  0  0
 19 17  1  0  0  0  0
 19 26  1  0  0  0  0
 19 28  1  0  0  0  0
 20 19  1  0  0  0  0
 20 27  1  6  0  0  0
 21 20  1  0  0  0  0
 22 21  1  0  0  0  0
 23 20  1  0  0  0  0
 23 31  2  0  0  0  0
 24 22  1  0  0  0  0
 25 21  1  0  0  0  0
 30 23  1  0  0  0  0
 32 30  1  0  0  0  0
M  END
