40

O          1.32600       -0.69100        0.09200
C          0.10200       -0.13100       -0.01000
O         -0.87000       -0.85700       -0.13400
C          0.03500        1.37700       -0.00400
H          2.09900       -0.12700        0.22900
C         -1.17300        2.00600       -0.03600
C         -1.23700        3.37600       -0.09900
C         -0.08600        4.11900       -0.09800
C          1.09600        3.47500       -0.03500
C          1.15700        2.13400        0.00400
C         -0.13600        5.64300       -0.17600
C         -2.60300        4.07400       -0.18700
C         -2.40800        1.26700        0.00700
H          2.15700        1.71500        0.02700
H          2.03100        4.02900       -0.02700
H         -3.42700        3.42500       -0.49200
H         -2.88500        4.49500        0.78400
H         -2.59000        4.86800       -0.94300
C          1.03700        6.59500        0.06600
N          0.25500        7.74700        0.46800
N         -0.91500        7.35100        1.05200
N         -1.08300        6.13600        0.85100
C          0.39700        9.08600        0.17500
H          1.64200        6.78000       -0.82600
H          1.66700        6.29600        0.91100
H         -0.53900        5.88900       -1.17100
N         -3.45200        0.75600        0.05400
C         -0.72900        9.83000        0.05800
C         -0.68800       11.15800       -0.11400
C          0.50100       11.78600       -0.16100
C          1.64000       11.05700       -0.11200
C          1.58800        9.71100        0.03800
C          0.54500       13.27000       -0.22100
H         -1.62900       11.69700       -0.17700
H         -1.71100        9.36800        0.10900
H          2.51900        9.15600        0.11700
H          2.60600       11.55600       -0.15700
O         -0.67100       13.83700       -0.07400
O          1.54700       13.95800       -0.32500
H         -0.50000       14.79900       -0.05500
