
 OpenBabel11042013073D

 50 53  0  0  1  0  0  0  0  0999 V2000
    1.2910    1.3920    0.2130 O   0  0  0  0  0  0  0  0  0  0  0  0
    0.1720    2.1160    0.4130 C   0  0  0  0  0  0  0  0  0  0  0  0
   -0.8930    1.5760    0.6790 O   0  0  0  0  0  0  0  0  0  0  0  0
    0.3320    3.6040    0.2460 C   0  0  1  0  0  0  0  0  0  0  0  0
    2.0510    1.8790   -0.1460 H   0  0  0  0  0  0  0  0  0  0  0  0
   -0.8230    4.2700    0.0440 C   0  0  0  0  0  0  0  0  0  0  0  0
   -0.8070    5.6010   -0.1280 C   0  0  1  0  0  0  0  0  0  0  0  0
    0.3340    6.3380   -0.0980 C   0  0  1  0  0  0  0  0  0  0  0  0
    1.4850    5.6530    0.1210 C   0  0  0  0  0  0  0  0  0  0  0  0
    1.4840    4.3040    0.2840 C   0  0  0  0  0  0  0  0  0  0  0  0
    0.2360    7.8480   -0.3670 C   0  0  2  0  0  0  0  0  0  0  0  0
   -2.0000    6.1920   -0.3660 F   0  0  0  0  0  0  0  0  0  0  0  0
   -1.7810    3.7580    0.0080 H   0  0  0  0  0  0  0  0  0  0  0  0
    2.4330    3.8110    0.4630 H   0  0  0  0  0  0  0  0  0  0  0  0
    2.4340    6.1800    0.1480 H   0  0  0  0  0  0  0  0  0  0  0  0
    1.2790    8.9490   -0.0240 C   0  0  0  0  0  0  0  0  0  0  0  0
    0.4710   10.2070   -0.4480 C   0  0  1  0  0  0  0  0  0  0  0  0
   -0.8860    9.8620    0.0710 N   0  0  0  0  0  0  0  0  0  0  0  0
   -0.9360    8.4440    0.2950 N   0  0  0  0  0  0  0  0  0  0  0  0
    0.7880   11.7090   -0.2150 C   0  0  2  0  0  0  0  0  0  0  0  0
   -1.7910    8.0330   -0.0960 H   0  0  0  0  0  0  0  0  0  0  0  0
   -1.0080   10.3400    0.9710 H   0  0  0  0  0  0  0  0  0  0  0  0
    2.2010    8.8350   -0.6020 H   0  0  0  0  0  0  0  0  0  0  0  0
    0.4060   10.1450   -1.5470 H   0  0  0  0  0  0  0  0  0  0  0  0
    1.5270    8.9600    1.0460 H   0  0  0  0  0  0  0  0  0  0  0  0
    0.0820    7.9000   -1.4570 H   0  0  0  0  0  0  0  0  0  0  0  0
   -0.2600   12.5660   -0.2250 C   0  0  0  0  0  0  0  0  0  0  0  0
   -0.1280   13.8840   -0.0340 C   0  0  0  0  0  0  0  0  0  0  0  0
    1.0750   14.4660    0.1650 C   0  0  2  0  0  0  0  0  0  0  0  0
    2.1460   13.6260    0.1390 C   0  0  0  0  0  0  0  0  0  0  0  0
    2.0060   12.2810   -0.0330 C   0  0  0  0  0  0  0  0  0  0  0  0
    1.1240   15.9810    0.4620 C   0  0  1  0  0  0  0  0  0  0  0  0
   -1.0430   14.4670   -0.0320 H   0  0  0  0  0  0  0  0  0  0  0  0
   -1.2760   12.2040   -0.3830 H   0  0  0  0  0  0  0  0  0  0  0  0
    2.8990   11.6610   -0.0360 H   0  0  0  0  0  0  0  0  0  0  0  0
    3.1460   14.0310    0.2820 H   0  0  0  0  0  0  0  0  0  0  0  0
    2.2950   16.8770    0.0520 C   0  0  0  0  0  0  0  0  0  0  0  0
    1.7570   18.2620    0.4300 C   0  0  2  0  0  0  0  0  0  0  0  0
    0.2940   18.1690    0.2070 N   0  0  0  0  0  0  0  0  0  0  0  0
    0.0140   16.7810   -0.1180 N   0  0  0  0  0  0  0  0  0  0  0  0
    2.3580   19.4580   -0.3010 C   0  0  0  0  0  0  0  0  0  0  0  0
   -0.8690   16.5010    0.3130 H   0  0  0  0  0  0  0  0  0  0  0  0
    0.0300   18.8050   -0.5570 H   0  0  0  0  0  0  0  0  0  0  0  0
    3.2110   16.6480    0.6050 H   0  0  0  0  0  0  0  0  0  0  0  0
    1.9130   18.4430    1.5010 H   0  0  0  0  0  0  0  0  0  0  0  0
    2.5130   16.8120   -1.0230 H   0  0  0  0  0  0  0  0  0  0  0  0
    1.0310   16.0460    1.5580 H   0  0  0  0  0  0  0  0  0  0  0  0
    1.4720   20.4670   -0.4920 O   0  0  0  0  0  0  0  0  0  0  0  0
    3.5280   19.6070   -0.6140 O   0  0  0  0  0  0  0  0  0  0  0  0
    2.0040   21.2130   -0.8390 H   0  0  0  0  0  0  0  0  0  0  0  0
  1  5  1  0  0  0  0
  2  1  1  0  0  0  0
  3  2  2  0  0  0  0
  4  2  1  1  0  0  0
  4 10  5  0  0  0  0
  6  4  5  0  0  0  0
  6  7  5  0  0  0  0
  6 13  1  0  0  0  0
  7 12  1  6  0  0  0
  8  7  5  0  0  0  0
  8  9  5  6  0  0  0
  8 11  1  0  0  0  0
  9 15  1  0  0  0  0
 10  9  5  0  0  0  0
 10 14  1  0  0  0  0
 11 19  1  0  0  0  0
 11 26  1  6  0  0  0
 16 11  1  0  0  0  0
 16 23  1  0  0  0  0
 16 25  1  0  0  0  0
 17 16  1  0  0  0  0
 17 24  1  6  0  0  0
 18 17  1  0  0  0  0
 19 18  1  0  0  0  0
 20 17  1  0  0  0  0
 20 27  5  6  0  0  0
 20 31  5  0  0  0  0
 21 19  1  0  0  0  0
 22 18  1  0  0  0  0
 27 28  5  0  0  0  0
 27 34  1  0  0  0  0
 28 33  1  0  0  0  0
 29 28  5  1  0  0  0
 29 32  1  0  0  0  0
 30 29  5  0  0  0  0
 30 36  1  0  0  0  0
 31 30  5  0  0  0  0
 31 35  1  0  0  0  0
 32 40  1  0  0  0  0
 32 47  1  1  0  0  0
 37 32  1  0  0  0  0
 37 44  1  0  0  0  0
 37 46  1  0  0  0  0
 38 37  1  0  0  0  0
 38 45  1  1  0  0  0
 39 38  1  0  0  0  0
 40 39  1  0  0  0  0
 41 38  1  0  0  0  0
 41 49  2  0  0  0  0
 42 40  1  0  0  0  0
 43 39  1  0  0  0  0
 48 41  1  0  0  0  0
 50 48  1  0  0  0  0
M  END
