22

O          1.65600        0.27200       -0.21800
C          0.47000        0.90100       -0.09200
O         -0.54600        0.23900        0.05800
C          0.49800        2.39900       -0.12300
H          2.44200        0.84500       -0.25600
C         -0.71900        2.97700       -0.23800
C         -0.88000        4.31600       -0.16200
C          0.19700        5.11900       -0.02500
C          1.42400        4.55400        0.03300
C          1.57800        3.21300        0.00400
C          0.08800        6.54200        0.02900
N         -2.22100        4.84000       -0.18400
F         -1.83900        2.23600       -0.40500
Cl         3.21100        2.63600        0.16500
H          2.29600        5.19900        0.12700
H         -2.44400        5.26700        0.71600
H         -2.90900        4.09700       -0.32700
C         -0.00600        7.74600        0.05100
C         -0.10500        9.17500        0.04800
O         -1.36600        9.64500        0.04000
O          0.86700        9.91500        0.05500
H         -1.25200       10.61700        0.02800
