
 OpenBabel11042013073D

 34 35  0  0  1  0  0  0  0  0999 V2000
    0.8180    0.9550   -0.4090 O   0  0  0  0  0  0  0  0  0  0  0  0
   -0.2610    1.6440    0.0280 C   0  0  0  0  0  0  0  0  0  0  0  0
   -1.3110    1.0920    0.3160 O   0  0  0  0  0  0  0  0  0  0  0  0
   -0.0470    3.1210    0.1040 C   0  0  2  0  0  0  0  0  0  0  0  0
    1.5400    1.5300   -0.7420 H   0  0  0  0  0  0  0  0  0  0  0  0
   -1.1370    3.9040   -0.0550 C   0  0  0  0  0  0  0  0  0  0  0  0
   -1.0190    5.2480   -0.0170 C   0  0  0  0  0  0  0  0  0  0  0  0
    0.1870    5.8260    0.1760 C   0  0  1  0  0  0  0  0  0  0  0  0
    1.2690    5.0350    0.3330 C   0  0  0  0  0  0  0  0  0  0  0  0
    1.1630    3.6900    0.3170 C   0  0  2  0  0  0  0  0  0  0  0  0
    0.3230    7.2530    0.1870 C   0  0  0  0  0  0  0  0  0  0  0  0
   -1.9100    5.8580   -0.1510 H   0  0  0  0  0  0  0  0  0  0  0  0
   -2.1180    3.4590   -0.2200 H   0  0  0  0  0  0  0  0  0  0  0  0
    2.3110    2.9410    0.5170 O   0  0  0  0  0  0  0  0  0  0  0  0
    2.2480    5.4840    0.4860 H   0  0  0  0  0  0  0  0  0  0  0  0
    0.3900    8.4500    0.0700 C   0  0  0  0  0  0  0  0  0  0  0  0
    0.3250    9.8540   -0.3480 C   0  0  2  0  0  0  0  0  0  0  0  0
    1.4190   10.8170    0.0870 C   0  0  0  0  0  0  0  0  0  0  0  0
    0.7970   12.1140   -0.4210 C   0  0  1  0  0  0  0  0  0  0  0  0
   -0.6470   11.9680   -0.1340 N   0  0  0  0  0  0  0  0  0  0  0  0
   -0.8610   10.5470    0.1710 N   0  0  0  0  0  0  0  0  0  0  0  0
    1.3050   13.3990    0.0630 C   0  0  0  0  0  0  0  0  0  0  0  0
   -1.7010   10.1860   -0.2840 H   0  0  0  0  0  0  0  0  0  0  0  0
   -0.8810   12.5360    0.6870 H   0  0  0  0  0  0  0  0  0  0  0  0
    2.3810   10.6020   -0.3890 H   0  0  0  0  0  0  0  0  0  0  0  0
    0.9090   12.1320   -1.5140 H   0  0  0  0  0  0  0  0  0  0  0  0
    1.5710   10.8200    1.1750 H   0  0  0  0  0  0  0  0  0  0  0  0
    0.2740    9.8480   -1.4470 H   0  0  0  0  0  0  0  0  0  0  0  0
    1.5460   14.5650    0.2430 C   0  0  0  0  0  0  0  0  0  0  0  0
    1.6860   15.9980    0.2840 C   0  0  0  0  0  0  0  0  0  0  0  0
    2.1660    2.2170    1.1570 H   0  0  0  0  0  0  0  0  0  0  0  0
    0.5130   16.6560    0.2990 O   0  0  0  0  0  0  0  0  0  0  0  0
    2.7600   16.5760    0.2400 O   0  0  0  0  0  0  0  0  0  0  0  0
    0.7660   17.6000    0.2490 H   0  0  0  0  0  0  0  0  0  0  0  0
  1  5  1  0  0  0  0
  2  1  1  0  0  0  0
  3  2  2  0  0  0  0
  4  2  1  6  0  0  0
  4 10  5  0  0  0  0
  6  4  5  0  0  0  0
  6  7  5  0  0  0  0
  6 13  1  0  0  0  0
  7 12  1  0  0  0  0
  8  7  5  0  0  0  0
  8 11  1  6  0  0  0
  9  8  5  0  0  0  0
  9 15  1  0  0  0  0
 10  9  5  0  0  0  0
 10 14  1  6  0  0  0
 14 31  1  0  0  0  0
 16 11  3  0  0  0  0
 17 16  1  0  0  0  0
 17 21  1  0  0  0  0
 17 28  1  6  0  0  0
 18 17  1  0  0  0  0
 18 25  1  0  0  0  0
 18 27  1  0  0  0  0
 19 18  1  0  0  0  0
 19 26  1  6  0  0  0
 20 19  1  0  0  0  0
 21 20  1  0  0  0  0
 22 19  1  0  0  0  0
 23 21  1  0  0  0  0
 24 20  1  0  0  0  0
 29 22  3  0  0  0  0
 30 29  1  0  0  0  0
 30 33  2  0  0  0  0
 32 30  1  0  0  0  0
 34 32  1  0  0  0  0
M  END
