34

O          0.81800        0.95500       -0.40900
C         -0.26100        1.64400        0.02800
O         -1.31100        1.09200        0.31600
C         -0.04700        3.12100        0.10400
H          1.54000        1.53000       -0.74200
C         -1.13700        3.90400       -0.05500
C         -1.01900        5.24800       -0.01700
C          0.18700        5.82600        0.17600
C          1.26900        5.03500        0.33300
C          1.16300        3.69000        0.31700
C          0.32300        7.25300        0.18700
H         -1.91000        5.85800       -0.15100
H         -2.11800        3.45900       -0.22000
O          2.31100        2.94100        0.51700
H          2.24800        5.48400        0.48600
C          0.39000        8.45000        0.07000
C          0.32500        9.85400       -0.34800
C          1.41900       10.81700        0.08700
C          0.79700       12.11400       -0.42100
N         -0.64700       11.96800       -0.13400
N         -0.86100       10.54700        0.17100
C          1.30500       13.39900        0.06300
H         -1.70100       10.18600       -0.28400
H         -0.88100       12.53600        0.68700
H          2.38100       10.60200       -0.38900
H          0.90900       12.13200       -1.51400
H          1.57100       10.82000        1.17500
H          0.27400        9.84800       -1.44700
C          1.54600       14.56500        0.24300
C          1.68600       15.99800        0.28400
H          2.16600        2.21700        1.15700
O          0.51300       16.65600        0.29900
O          2.76000       16.57600        0.24000
H          0.76600       17.60000        0.24900
