
 OpenBabel11042013073D

 41 43  0  0  1  0  0  0  0  0999 V2000
    0.8890   -0.6290   -0.0050 O   0  0  0  0  0  0  0  0  0  0  0  0
   -0.3080    0.0010    0.0530 C   0  0  0  0  0  0  0  0  0  0  0  0
   -1.3250   -0.6710    0.1290 O   0  0  0  0  0  0  0  0  0  0  0  0
   -0.2520    1.5150    0.0040 C   0  0  2  0  0  0  0  0  0  0  0  0
    1.6260    0.0160   -0.1150 H   0  0  0  0  0  0  0  0  0  0  0  0
   -1.3910    2.2580    0.1190 C   0  0  2  0  0  0  0  0  0  0  0  0
   -1.3140    3.6130    0.0600 C   0  0  0  0  0  0  0  0  0  0  0  0
   -0.1560    4.2840   -0.1370 C   0  0  2  0  0  0  0  0  0  0  0  0
    0.9570    3.5250   -0.2420 C   0  0  0  0  0  0  0  0  0  0  0  0
    0.9220    2.1840   -0.1600 C   0  0  1  0  0  0  0  0  0  0  0  0
   -0.1070    5.7720   -0.1850 C   0  0  1  0  0  0  0  0  0  0  0  0
   -2.2400    4.1740    0.1850 H   0  0  0  0  0  0  0  0  0  0  0  0
   -3.1440    1.5810    0.3880 Br  0  0  0  0  0  0  0  0  0  0  0  0
    2.2050    1.5050   -0.2210 N   0  0  0  0  0  0  0  0  0  0  0  0
    1.9200    4.0120   -0.3980 H   0  0  0  0  0  0  0  0  0  0  0  0
    2.7620    1.9230   -0.9790 H   0  0  0  0  0  0  0  0  0  0  0  0
    2.7660    1.8320    0.5810 H   0  0  0  0  0  0  0  0  0  0  0  0
   -1.1770    6.5150   -0.5600 C   0  0  0  0  0  0  0  0  0  0  0  0
   -1.1720    7.8600   -0.4760 C   0  0  0  0  0  0  0  0  0  0  0  0
   -0.0900    8.5310   -0.0200 C   0  0  2  0  0  0  0  0  0  0  0  0
    1.0160    7.8050    0.2560 C   0  0  0  0  0  0  0  0  0  0  0  0
    1.0040    6.4610    0.1830 C   0  0  0  0  0  0  0  0  0  0  0  0
   -0.1290   10.0050    0.3430 C   0  0  1  0  0  0  0  0  0  0  0  0
   -2.0890    8.3880   -0.7270 H   0  0  0  0  0  0  0  0  0  0  0  0
   -2.1000    6.0490   -0.8960 H   0  0  0  0  0  0  0  0  0  0  0  0
    1.9120    5.9510    0.4880 H   0  0  0  0  0  0  0  0  0  0  0  0
    1.9210    8.2930    0.6110 H   0  0  0  0  0  0  0  0  0  0  0  0
    0.9650   10.9630   -0.1140 C   0  0  0  0  0  0  0  0  0  0  0  0
    0.4170   12.2780    0.4350 C   0  0  2  0  0  0  0  0  0  0  0  0
   -1.0640   12.1190    0.4150 N   0  0  0  0  0  0  0  0  0  0  0  0
   -1.3200   10.7690   -0.0580 N   0  0  0  0  0  0  0  0  0  0  0  0
    0.8510   13.5360   -0.3010 C   0  0  0  0  0  0  0  0  0  0  0  0
   -2.1430   10.3750    0.4070 H   0  0  0  0  0  0  0  0  0  0  0  0
   -1.4590   12.8320   -0.2130 H   0  0  0  0  0  0  0  0  0  0  0  0
    1.9410   10.7270    0.3230 H   0  0  0  0  0  0  0  0  0  0  0  0
    0.7190   12.4020    1.4830 H   0  0  0  0  0  0  0  0  0  0  0  0
    1.0740   10.9850   -1.2060 H   0  0  0  0  0  0  0  0  0  0  0  0
   -0.1160    9.9950    1.4450 H   0  0  0  0  0  0  0  0  0  0  0  0
   -0.1550   14.4280   -0.4710 O   0  0  0  0  0  0  0  0  0  0  0  0
    1.9870   13.8180   -0.6450 O   0  0  0  0  0  0  0  0  0  0  0  0
    0.2790   15.2270   -0.8340 H   0  0  0  0  0  0  0  0  0  0  0  0
  1  5  1  0  0  0  0
  2  1  1  0  0  0  0
  3  2  2  0  0  0  0
  4  2  1  6  0  0  0
  4 10  5  0  0  0  0
  6  4  5  0  0  0  0
  6  7  5  0  0  0  0
  6 13  1  1  0  0  0
  7 12  1  0  0  0  0
  8  7  5  1  0  0  0
  8 11  1  0  0  0  0
  9  8  5  0  0  0  0
  9 15  1  0  0  0  0
 10  9  5  0  0  0  0
 10 14  1  1  0  0  0
 11 18  5  1  0  0  0
 11 22  5  0  0  0  0
 14 16  1  0  0  0  0
 14 17  1  0  0  0  0
 18 19  5  0  0  0  0
 18 25  1  0  0  0  0
 19 24  1  0  0  0  0
 20 19  5  1  0  0  0
 20 23  1  0  0  0  0
 21 20  5  0  0  0  0
 21 27  1  0  0  0  0
 22 21  5  0  0  0  0
 22 26  1  0  0  0  0
 23 31  1  0  0  0  0
 23 38  1  1  0  0  0
 28 23  1  0  0  0  0
 28 35  1  0  0  0  0
 28 37  1  0  0  0  0
 29 28  1  0  0  0  0
 29 36  1  1  0  0  0
 30 29  1  0  0  0  0
 31 30  1  0  0  0  0
 32 29  1  0  0  0  0
 32 40  2  0  0  0  0
 33 31  1  0  0  0  0
 34 30  1  0  0  0  0
 39 32  1  0  0  0  0
 41 39  1  0  0  0  0
M  END
