
 OpenBabel11042013073D

 38 39  0  0  1  0  0  0  0  0999 V2000
    1.5050    0.6750    0.3020 O   0  0  0  0  0  0  0  0  0  0  0  0
    0.2460    1.1610    0.1890 C   0  0  0  0  0  0  0  0  0  0  0  0
   -0.6830    0.3710    0.2630 O   0  0  0  0  0  0  0  0  0  0  0  0
    0.1110    2.6750    0.0020 C   0  0  2  0  0  0  0  0  0  0  0  0
    2.1870    1.3770    0.2700 H   0  0  0  0  0  0  0  0  0  0  0  0
   -1.1180    3.2960   -0.0600 C   0  0  2  0  0  0  0  0  0  0  0  0
   -1.1420    4.6630   -0.2080 C   0  0  1  0  0  0  0  0  0  0  0  0
   -0.0080    5.4210   -0.1870 C   0  0  1  0  0  0  0  0  0  0  0  0
    1.1710    4.7600   -0.1860 C   0  0  0  0  0  0  0  0  0  0  0  0
    1.2380    3.4240   -0.1270 C   0  0  2  0  0  0  0  0  0  0  0  0
   -0.0500    6.9670   -0.1710 C   0  0  2  0  0  0  0  0  0  0  0  0
   -2.3790    5.3490   -0.4290 N   0  0  0  0  0  0  0  0  0  0  0  0
   -2.3760    2.3980    0.0590 C   0  0  0  0  0  0  0  0  0  0  0  0
    2.4950    2.8320   -0.2370 O   0  0  0  0  0  0  0  0  0  0  0  0
    2.1040    5.3170   -0.2260 H   0  0  0  0  0  0  0  0  0  0  0  0
    1.2210    7.7870    0.0960 C   0  0  0  0  0  0  0  0  0  0  0  0
    0.7230    9.1130    0.6860 C   0  0  2  0  0  0  0  0  0  0  0  0
   -0.7250    8.9180    0.9200 N   0  0  0  0  0  0  0  0  0  0  0  0
   -0.8940    7.4920    0.9150 N   0  0  0  0  0  0  0  0  0  0  0  0
    0.9940   10.3230   -0.2060 C   0  0  0  0  0  0  0  0  0  0  0  0
   -1.8620    7.1630    0.8490 H   0  0  0  0  0  0  0  0  0  0  0  0
   -1.2470    9.4000    0.1770 H   0  0  0  0  0  0  0  0  0  0  0  0
    1.8040    7.9170   -0.8230 H   0  0  0  0  0  0  0  0  0  0  0  0
    1.2080    9.3190    1.6470 H   0  0  0  0  0  0  0  0  0  0  0  0
    1.8590    7.3010    0.8450 H   0  0  0  0  0  0  0  0  0  0  0  0
   -0.4480    7.2920   -1.1430 H   0  0  0  0  0  0  0  0  0  0  0  0
   -2.3040    6.2560   -0.8780 H   0  0  0  0  0  0  0  0  0  0  0  0
   -3.0630    4.8180   -0.9510 H   0  0  0  0  0  0  0  0  0  0  0  0
    3.0270    3.2630   -0.9360 H   0  0  0  0  0  0  0  0  0  0  0  0
   -3.8260    2.8640   -0.0360 C   0  0  0  0  0  0  0  0  0  0  0  0
   -4.4910    2.0220    0.1860 H   0  0  0  0  0  0  0  0  0  0  0  0
   -4.0760    3.1840   -1.0530 H   0  0  0  0  0  0  0  0  0  0  0  0
   -4.0570    3.6540    0.6830 H   0  0  0  0  0  0  0  0  0  0  0  0
   -2.2980    1.6320   -0.7220 H   0  0  0  0  0  0  0  0  0  0  0  0
   -2.3150    1.9100    1.0440 H   0  0  0  0  0  0  0  0  0  0  0  0
   -0.0560   11.1640   -0.3390 O   0  0  0  0  0  0  0  0  0  0  0  0
    2.0560   10.5900   -0.7470 O   0  0  0  0  0  0  0  0  0  0  0  0
    0.3090   11.9390   -0.8160 H   0  0  0  0  0  0  0  0  0  0  0  0
  1  5  1  0  0  0  0
  2  1  1  0  0  0  0
  3  2  2  0  0  0  0
  4  2  1  6  0  0  0
  4 10  5  0  0  0  0
  6  4  5  0  0  0  0
  6  7  5  0  0  0  0
  6 13  1  1  0  0  0
  7 12  1  6  0  0  0
  8  7  5  0  0  0  0
  8  9  5  6  0  0  0
  8 11  1  0  0  0  0
  9 15  1  0  0  0  0
 10  9  5  0  0  0  0
 10 14  1  6  0  0  0
 11 19  1  0  0  0  0
 11 26  1  6  0  0  0
 12 27  1  0  0  0  0
 12 28  1  0  0  0  0
 13 34  1  0  0  0  0
 13 35  1  0  0  0  0
 14 29  1  0  0  0  0
 16 11  1  0  0  0  0
 16 23  1  0  0  0  0
 16 25  1  0  0  0  0
 17 16  1  0  0  0  0
 17 24  1  1  0  0  0
 18 17  1  0  0  0  0
 19 18  1  0  0  0  0
 20 17  1  0  0  0  0
 20 37  2  0  0  0  0
 21 19  1  0  0  0  0
 22 18  1  0  0  0  0
 30 31  1  0  0  0  0
 30 32  1  0  0  0  0
 30 33  1  0  0  0  0
 30 13  1  0  0  0  0
 36 20  1  0  0  0  0
 38 36  1  0  0  0  0
M  END
