
 OpenBabel11042013073D

 30 30  0  0  1  0  0  0  0  0999 V2000
    0.6580    0.1770   -0.4740 O   0  0  0  0  0  0  0  0  0  0  0  0
   -0.4670    0.8910   -0.2550 C   0  0  0  0  0  0  0  0  0  0  0  0
   -1.5310    0.3310   -0.0240 O   0  0  0  0  0  0  0  0  0  0  0  0
   -0.3070    2.3820   -0.2780 C   0  0  1  0  0  0  0  0  0  0  0  0
    1.4140    0.7410   -0.7370 H   0  0  0  0  0  0  0  0  0  0  0  0
   -1.4310    3.0910   -0.0400 C   0  0  0  0  0  0  0  0  0  0  0  0
   -1.4220    4.4390    0.0150 C   0  0  2  0  0  0  0  0  0  0  0  0
   -0.2650    5.1250   -0.1940 C   0  0  2  0  0  0  0  0  0  0  0  0
    0.8560    4.3950   -0.4450 C   0  0  0  0  0  0  0  0  0  0  0  0
    0.8570    3.0420   -0.4770 C   0  0  2  0  0  0  0  0  0  0  0  0
   -0.0780    6.5820   -0.0800 C   0  0  0  0  0  0  0  0  0  0  0  0
   -2.6560    5.0530    0.3300 N   0  0  0  0  0  0  0  0  0  0  0  0
   -2.3640    2.5590    0.1400 H   0  0  0  0  0  0  0  0  0  0  0  0
    2.9750    2.4450    0.3370 C   0  0  0  0  0  0  0  0  0  0  0  0
    1.7980    4.9090   -0.6260 H   0  0  0  0  0  0  0  0  0  0  0  0
   -0.8980    7.5700   -0.4760 C   0  0  0  0  0  0  0  0  0  0  0  0
   -0.5690    8.9450   -0.2760 C   0  0  0  0  0  0  0  0  0  0  0  0
   -1.8420    7.3670   -0.9670 H   0  0  0  0  0  0  0  0  0  0  0  0
    0.8730    6.8730    0.3690 H   0  0  0  0  0  0  0  0  0  0  0  0
   -0.3350   10.1140   -0.1210 C   0  0  0  0  0  0  0  0  0  0  0  0
   -0.0690   11.5160    0.0490 C   0  0  0  0  0  0  0  0  0  0  0  0
   -2.7810    6.0530    0.3210 H   0  0  0  0  0  0  0  0  0  0  0  0
   -3.5160    4.5190    0.2820 H   0  0  0  0  0  0  0  0  0  0  0  0
    3.6840    1.6180    0.2280 H   0  0  0  0  0  0  0  0  0  0  0  0
    2.4870    2.3450    1.3120 H   0  0  0  0  0  0  0  0  0  0  0  0
    3.5270    3.3860    0.2700 H   0  0  0  0  0  0  0  0  0  0  0  0
    2.0290    2.3390   -0.7350 O   0  0  0  0  0  0  0  0  0  0  0  0
   -1.1730   12.2880    0.0250 O   0  0  0  0  0  0  0  0  0  0  0  0
    1.0460   11.9790    0.1960 O   0  0  0  0  0  0  0  0  0  0  0  0
   -0.8220   13.1940    0.1430 H   0  0  0  0  0  0  0  0  0  0  0  0
  1  5  1  0  0  0  0
  2  1  1  0  0  0  0
  3  2  2  0  0  0  0
  4  2  1  1  0  0  0
  4 10  5  0  0  0  0
  6  4  5  0  0  0  0
  6  7  5  0  0  0  0
  6 13  1  0  0  0  0
  7 12  1  1  0  0  0
  8  7  5  0  0  0  0
  8 11  1  1  0  0  0
  9  8  5  0  0  0  0
  9 15  1  0  0  0  0
 10  9  5  0  0  0  0
 10 27  1  6  0  0  0
 11 19  1  0  0  0  0
 12 22  1  0  0  0  0
 12 23  1  0  0  0  0
 14 24  1  0  0  0  0
 14 25  1  0  0  0  0
 14 26  1  0  0  0  0
 14 27  1  0  0  0  0
 16 11  2  0  0  0  0
 16 18  1  0  0  0  0
 17 16  1  0  0  0  0
 20 17  3  0  0  0  0
 21 20  1  0  0  0  0
 21 29  2  0  0  0  0
 28 21  1  0  0  0  0
 30 28  1  0  0  0  0
M  END
