
 OpenBabel11042013073D

 39 41  0  0  1  0  0  0  0  0999 V2000
    1.2150   -0.5750    0.0640 O   0  0  0  0  0  0  0  0  0  0  0  0
   -0.0060   -0.0050    0.1170 C   0  0  0  0  0  0  0  0  0  0  0  0
   -1.0160   -0.6950    0.1530 O   0  0  0  0  0  0  0  0  0  0  0  0
   -0.0320    1.4950    0.0930 C   0  0  2  0  0  0  0  0  0  0  0  0
    1.9730    0.0220   -0.0220 H   0  0  0  0  0  0  0  0  0  0  0  0
   -1.2610    2.0550    0.0310 C   0  0  0  0  0  0  0  0  0  0  0  0
   -1.4420    3.3890   -0.0440 C   0  0  1  0  0  0  0  0  0  0  0  0
   -0.3490    4.2110   -0.0750 C   0  0  1  0  0  0  0  0  0  0  0  0
    0.8780    3.6480    0.0240 C   0  0  0  0  0  0  0  0  0  0  0  0
    1.0410    2.3120    0.1090 C   0  0  0  0  0  0  0  0  0  0  0  0
   -0.4960    5.7160   -0.2750 C   0  0  2  0  0  0  0  0  0  0  0  0
   -2.8630    3.9030   -0.1470 C   0  0  0  0  0  0  0  0  0  0  0  0
   -2.1400    1.4090    0.0330 H   0  0  0  0  0  0  0  0  0  0  0  0
    2.0570    1.9440    0.1740 H   0  0  0  0  0  0  0  0  0  0  0  0
    1.7770    4.2590    0.0080 H   0  0  0  0  0  0  0  0  0  0  0  0
   -3.5830    3.0970   -0.3260 H   0  0  0  0  0  0  0  0  0  0  0  0
   -3.1650    4.3910    0.7860 H   0  0  0  0  0  0  0  0  0  0  0  0
   -2.9720    4.6040   -0.9820 H   0  0  0  0  0  0  0  0  0  0  0  0
    0.6460    6.6680    0.0370 C   0  0  0  0  0  0  0  0  0  0  0  0
   -0.1460    7.8590    0.2350 N   0  0  0  0  0  0  0  0  0  0  0  0
   -1.3890    7.5510    0.6960 N   0  0  0  0  0  0  0  0  0  0  0  0
   -1.5770    6.3190    0.5470 N   0  0  0  0  0  0  0  0  0  0  0  0
    0.3110    9.2270    0.3430 C   0  0  1  0  0  0  0  0  0  0  0  0
    1.3480    6.7660   -0.7930 H   0  0  0  0  0  0  0  0  0  0  0  0
    1.1650    6.4510    0.9770 H   0  0  0  0  0  0  0  0  0  0  0  0
   -0.7740    5.8590   -1.3310 H   0  0  0  0  0  0  0  0  0  0  0  0
    1.7130    9.5570   -0.1220 C   0  0  0  0  0  0  0  0  0  0  0  0
    1.4820   10.7740   -0.8780 N   0  0  0  0  0  0  0  0  0  0  0  0
    0.1630   10.8190   -1.2730 N   0  0  0  0  0  0  0  0  0  0  0  0
   -0.5150   10.0410   -0.5610 N   0  0  0  0  0  0  0  0  0  0  0  0
    1.8240   12.0420   -0.2500 C   0  0  0  0  0  0  0  0  0  0  0  0
    2.4200    9.6680    0.7060 H   0  0  0  0  0  0  0  0  0  0  0  0
    2.1160    8.8090   -0.8110 H   0  0  0  0  0  0  0  0  0  0  0  0
    0.1700    9.5460    1.3830 H   0  0  0  0  0  0  0  0  0  0  0  0
    1.7160   13.1720    0.1350 C   0  0  0  0  0  0  0  0  0  0  0  0
    1.1550   14.4660    0.3830 C   0  0  0  0  0  0  0  0  0  0  0  0
   -0.1890   14.4460    0.3390 O   0  0  0  0  0  0  0  0  0  0  0  0
    1.8060   15.4810    0.5320 O   0  0  0  0  0  0  0  0  0  0  0  0
   -0.4660   15.3850    0.3850 H   0  0  0  0  0  0  0  0  0  0  0  0
  1  5  1  0  0  0  0
  2  1  1  0  0  0  0
  3  2  2  0  0  0  0
  4  2  1  6  0  0  0
  4 10  5  0  0  0  0
  6  4  5  0  0  0  0
  6  7  5  0  0  0  0
  6 13  1  0  0  0  0
  7 12  1  6  0  0  0
  8  7  5  0  0  0  0
  8  9  5  6  0  0  0
  8 11  1  0  0  0  0
  9 15  1  0  0  0  0
 10  9  5  0  0  0  0
 10 14  1  0  0  0  0
 11 22  1  0  0  0  0
 11 26  1  6  0  0  0
 12 16  1  0  0  0  0
 12 17  1  0  0  0  0
 12 18  1  0  0  0  0
 19 11  1  0  0  0  0
 19 24  1  0  0  0  0
 19 25  1  0  0  0  0
 20 19  1  0  0  0  0
 21 20  1  0  0  0  0
 22 21  2  0  0  0  0
 23 20  1  0  0  0  0
 23 30  1  0  0  0  0
 23 34  1  1  0  0  0
 27 23  1  0  0  0  0
 27 32  1  0  0  0  0
 27 33  1  0  0  0  0
 28 27  1  0  0  0  0
 29 28  1  0  0  0  0
 30 29  2  0  0  0  0
 31 28  1  0  0  0  0
 35 31  3  0  0  0  0
 36 35  1  0  0  0  0
 36 38  2  0  0  0  0
 37 36  1  0  0  0  0
 39 37  1  0  0  0  0
M  END
