50

O          1.41000       -1.89500       -0.00600
C          0.20300       -1.29400        0.01900
O         -0.83100       -1.94600       -0.00100
C          0.23000        0.19300        0.04700
H          2.18500       -1.31200        0.00300
C         -0.97200        0.81100        0.05600
C         -1.04500        2.15100        0.04600
C          0.07300        2.91400        0.00900
C          1.26500        2.27600        0.02800
C          1.35200        0.94100        0.04800
C          0.01100        4.37500       -0.07800
H         -2.04400        2.57700        0.04800
H         -1.90200        0.24600        0.06100
H          2.35600        0.54400        0.05700
H          2.21400        2.80000        0.02500
C         -1.16200        5.04000       -0.18000
C         -1.19400        6.37500       -0.26000
C         -0.06800        7.10500       -0.20800
C          1.10300        6.44300       -0.14800
C          1.14100        5.11600       -0.08000
C         -0.09500        8.55000       -0.05700
H         -2.18900        6.81300       -0.30900
H         -2.12800        4.55100       -0.17700
H          2.13900        4.70800        0.00500
H          2.07200        6.93400       -0.10400
C         -1.27200        9.18800        0.14600
C         -1.29600       10.47600        0.47900
C         -0.13900       11.14500        0.57700
C          1.04000       10.55000        0.35400
C          1.05700        9.26300        0.01500
N         -0.18100       12.48000        0.68500
H         -2.24300       10.98900        0.61700
H         -2.24100        8.71600        0.06500
H          2.04000        8.85500       -0.18100
H          1.96400       11.12200        0.39800
N         -0.32600       12.92100       -0.47400
C         -0.36900       14.25900       -0.45600
C         -1.55500       14.86500       -0.35000
C         -1.59400       16.19200       -0.18000
C         -0.42800       16.88400       -0.12700
C          0.76400       16.26300       -0.25800
C          0.78900       14.93700       -0.43100
C         -0.41200       18.33600        0.09700
H         -2.55900       16.66800       -0.05400
H         -2.47000       14.27400       -0.35300
H          1.73200       14.39400       -0.49800
H          1.70600       16.79900       -0.19900
O         -1.64500       18.86800        0.12100
O          0.58000       19.02900        0.23500
H         -1.47100       19.82200        0.23700
