
 OpenBabel11042013083D

 50 53  0  0  1  0  0  0  0  0999 V2000
    1.4100   -1.8950   -0.0060 O   0  0  0  0  0  0  0  0  0  0  0  0
    0.2030   -1.2940    0.0190 C   0  0  0  0  0  0  0  0  0  0  0  0
   -0.8310   -1.9460   -0.0010 O   0  0  0  0  0  0  0  0  0  0  0  0
    0.2300    0.1930    0.0470 C   0  0  2  0  0  0  0  0  0  0  0  0
    2.1850   -1.3120    0.0030 H   0  0  0  0  0  0  0  0  0  0  0  0
   -0.9720    0.8110    0.0560 C   0  0  0  0  0  0  0  0  0  0  0  0
   -1.0450    2.1510    0.0460 C   0  0  0  0  0  0  0  0  0  0  0  0
    0.0730    2.9140    0.0090 C   0  0  1  0  0  0  0  0  0  0  0  0
    1.2650    2.2760    0.0280 C   0  0  0  0  0  0  0  0  0  0  0  0
    1.3520    0.9410    0.0480 C   0  0  0  0  0  0  0  0  0  0  0  0
    0.0110    4.3750   -0.0780 C   0  0  2  0  0  0  0  0  0  0  0  0
   -2.0440    2.5770    0.0480 H   0  0  0  0  0  0  0  0  0  0  0  0
   -1.9020    0.2460    0.0610 H   0  0  0  0  0  0  0  0  0  0  0  0
    2.3560    0.5440    0.0570 H   0  0  0  0  0  0  0  0  0  0  0  0
    2.2140    2.8000    0.0250 H   0  0  0  0  0  0  0  0  0  0  0  0
   -1.1620    5.0400   -0.1800 C   0  0  0  0  0  0  0  0  0  0  0  0
   -1.1940    6.3750   -0.2600 C   0  0  0  0  0  0  0  0  0  0  0  0
   -0.0680    7.1050   -0.2080 C   0  0  2  0  0  0  0  0  0  0  0  0
    1.1030    6.4430   -0.1480 C   0  0  0  0  0  0  0  0  0  0  0  0
    1.1410    5.1160   -0.0800 C   0  0  0  0  0  0  0  0  0  0  0  0
   -0.0950    8.5500   -0.0570 C   0  0  1  0  0  0  0  0  0  0  0  0
   -2.1890    6.8130   -0.3090 H   0  0  0  0  0  0  0  0  0  0  0  0
   -2.1280    4.5510   -0.1770 H   0  0  0  0  0  0  0  0  0  0  0  0
    2.1390    4.7080    0.0050 H   0  0  0  0  0  0  0  0  0  0  0  0
    2.0720    6.9340   -0.1040 H   0  0  0  0  0  0  0  0  0  0  0  0
   -1.2720    9.1880    0.1460 C   0  0  0  0  0  0  0  0  0  0  0  0
   -1.2960   10.4760    0.4790 C   0  0  0  0  0  0  0  0  0  0  0  0
   -0.1390   11.1450    0.5770 C   0  0  1  0  0  0  0  0  0  0  0  0
    1.0400   10.5500    0.3540 C   0  0  0  0  0  0  0  0  0  0  0  0
    1.0570    9.2630    0.0150 C   0  0  0  0  0  0  0  0  0  0  0  0
   -0.1810   12.4800    0.6850 N   0  0  0  0  0  0  0  0  0  0  0  0
   -2.2430   10.9890    0.6170 H   0  0  0  0  0  0  0  0  0  0  0  0
   -2.2410    8.7160    0.0650 H   0  0  0  0  0  0  0  0  0  0  0  0
    2.0400    8.8550   -0.1810 H   0  0  0  0  0  0  0  0  0  0  0  0
    1.9640   11.1220    0.3980 H   0  0  0  0  0  0  0  0  0  0  0  0
   -0.3260   12.9210   -0.4740 N   0  0  0  0  0  0  0  0  0  0  0  0
   -0.3690   14.2590   -0.4560 C   0  0  1  0  0  0  0  0  0  0  0  0
   -1.5550   14.8650   -0.3500 C   0  0  0  0  0  0  0  0  0  0  0  0
   -1.5940   16.1920   -0.1800 C   0  0  0  0  0  0  0  0  0  0  0  0
   -0.4280   16.8840   -0.1270 C   0  0  2  0  0  0  0  0  0  0  0  0
    0.7640   16.2630   -0.2580 C   0  0  0  0  0  0  0  0  0  0  0  0
    0.7890   14.9370   -0.4310 C   0  0  0  0  0  0  0  0  0  0  0  0
   -0.4120   18.3360    0.0970 C   0  0  0  0  0  0  0  0  0  0  0  0
   -2.5590   16.6680   -0.0540 H   0  0  0  0  0  0  0  0  0  0  0  0
   -2.4700   14.2740   -0.3530 H   0  0  0  0  0  0  0  0  0  0  0  0
    1.7320   14.3940   -0.4980 H   0  0  0  0  0  0  0  0  0  0  0  0
    1.7060   16.7990   -0.1990 H   0  0  0  0  0  0  0  0  0  0  0  0
   -1.6450   18.8680    0.1210 O   0  0  0  0  0  0  0  0  0  0  0  0
    0.5800   19.0290    0.2350 O   0  0  0  0  0  0  0  0  0  0  0  0
   -1.4710   19.8220    0.2370 H   0  0  0  0  0  0  0  0  0  0  0  0
  1  5  1  0  0  0  0
  2  1  1  0  0  0  0
  3  2  2  0  0  0  0
  4  2  1  6  0  0  0
  4 10  5  0  0  0  0
  6  4  5  0  0  0  0
  6  7  5  0  0  0  0
  6 13  1  0  0  0  0
  7 12  1  0  0  0  0
  8  7  5  6  0  0  0
  8 11  1  0  0  0  0
  9  8  5  0  0  0  0
  9 15  1  0  0  0  0
 10  9  5  0  0  0  0
 10 14  1  0  0  0  0
 11 16  5  6  0  0  0
 11 20  5  0  0  0  0
 16 17  5  0  0  0  0
 16 23  1  0  0  0  0
 17 22  1  0  0  0  0
 18 17  5  1  0  0  0
 18 21  1  0  0  0  0
 19 18  5  0  0  0  0
 19 25  1  0  0  0  0
 20 19  5  0  0  0  0
 20 24  1  0  0  0  0
 21 26  5  1  0  0  0
 21 30  5  0  0  0  0
 26 27  5  0  0  0  0
 26 33  1  0  0  0  0
 27 32  1  0  0  0  0
 28 27  5  0  0  0  0
 28 31  1  6  0  0  0
 29 28  5  0  0  0  0
 29 35  1  0  0  0  0
 30 29  5  0  0  0  0
 30 34  1  0  0  0  0
 36 31  2  0  0  0  0
 37 36  1  1  0  0  0
 37 42  5  0  0  0  0
 38 37  5  0  0  0  0
 38 39  5  0  0  0  0
 38 45  1  0  0  0  0
 39 44  1  0  0  0  0
 40 39  5  0  0  0  0
 40 43  1  1  0  0  0
 41 40  5  0  0  0  0
 41 47  1  0  0  0  0
 42 41  5  0  0  0  0
 42 46  1  0  0  0  0
 43 49  2  0  0  0  0
 48 43  1  0  0  0  0
 50 48  1  0  0  0  0
M  END
