25

O          1.13700        0.52300        1.03100
C          0.07400        1.15300        0.47800
O         -0.98600        0.56600        0.33000
C          0.30900        2.62100        0.16100
H          1.95700        1.06900        1.03900
C         -0.75500        3.48500        0.15600
C         -0.51900        4.81500       -0.03800
C          0.75400        5.27200       -0.12200
C          1.80200        4.41900       -0.17400
C          1.56400        3.08100       -0.09600
C          1.00900        6.73800       -0.18000
C         -1.61300        5.73700       -0.19900
C         -2.18400        2.98800        0.36000
N          2.64800        2.13600       -0.28600
C          3.14600        4.90400       -0.30900
N          4.25800        5.21900       -0.40400
H          3.50500        2.52000       -0.69800
H          2.38200        1.33300       -0.87200
H         -2.93500        3.78200        0.37900
H         -2.28100        2.47700        1.32400
H         -2.47900        2.32000       -0.45700
N         -2.48400        6.47300       -0.40800
O          0.36600        7.38700        0.80700
O          1.74200        7.31300       -0.95900
H          0.55300        8.34100        0.66500
