53

O          1.23300        1.44800       -0.23000
C          0.14500        2.21200       -0.46600
O         -0.91500        1.70800       -0.80400
C          0.33000        3.68500       -0.23700
H          1.98700        1.90500        0.17800
C         -0.81600        4.39400       -0.11300
C         -0.78200        5.71700        0.11800
C          0.38100        6.40700        0.26700
C          1.52700        5.68600        0.10700
C          1.50400        4.35300       -0.14300
C          0.36800        7.89900        0.67100
H         -1.74200        6.20600        0.22300
H         -1.78200        3.90300       -0.19900
H          2.45300        3.84100       -0.25200
H          2.49400        6.17800        0.20700
C          1.35500        8.95600        0.13500
C          0.72900       10.30700        0.61600
N         -0.71200        9.96800        0.73300
N         -0.88400        8.59200        0.33200
C          1.08600       11.59800       -0.22500
H         -1.65800        8.17200        0.85000
H         -1.29900       10.55200        0.14200
H          2.35600        8.81600        0.55800
H          1.08600       10.48000        1.63900
H          1.42800        8.91300       -0.95900
H          0.45900        7.88700        1.76900
O          1.57500       12.75500        0.55600
C          0.33000       13.66600       -1.22700
C         -0.07400       12.22900       -0.98800
C          1.83700       15.30700        0.09700
H         -0.97100       12.29200       -0.36400
H          0.49400       13.90100       -2.28000
H         -0.50400       14.29600       -0.89600
H         -0.32800       11.69300       -1.90500
H          2.44400       13.62700       -1.07300
C          1.60400       13.85400       -0.39900
H          1.89400       11.33900       -0.92300
C          0.82100       16.16700        0.35300
C          1.02500       17.49300        0.46900
C          2.26200       18.02400        0.35500
C          3.32400       17.18900        0.19600
C          3.08400       15.85200        0.06300
C          2.41600       19.51900        0.34000
H          0.15600       18.13400        0.60900
H         -0.20700       15.82300        0.41400
H          3.92900       15.19000       -0.12600
C          4.74800       17.68700        0.13700
H          4.96400       18.36800        0.96800
H          4.93800       18.20100       -0.81100
H          5.47500       16.87200        0.22400
O          1.24600       20.18700        0.42000
O          3.44500       20.15700        0.19300
H          1.51500       21.12400        0.31900
