
 OpenBabel11042013083D

 53 56  0  0  1  0  0  0  0  0999 V2000
    1.2330    1.4480   -0.2300 O   0  0  0  0  0  0  0  0  0  0  0  0
    0.1450    2.2120   -0.4660 C   0  0  0  0  0  0  0  0  0  0  0  0
   -0.9150    1.7080   -0.8040 O   0  0  0  0  0  0  0  0  0  0  0  0
    0.3300    3.6850   -0.2370 C   0  0  1  0  0  0  0  0  0  0  0  0
    1.9870    1.9050    0.1780 H   0  0  0  0  0  0  0  0  0  0  0  0
   -0.8160    4.3940   -0.1130 C   0  0  0  0  0  0  0  0  0  0  0  0
   -0.7820    5.7170    0.1180 C   0  0  0  0  0  0  0  0  0  0  0  0
    0.3810    6.4070    0.2670 C   0  0  2  0  0  0  0  0  0  0  0  0
    1.5270    5.6860    0.1070 C   0  0  0  0  0  0  0  0  0  0  0  0
    1.5040    4.3530   -0.1430 C   0  0  0  0  0  0  0  0  0  0  0  0
    0.3680    7.8990    0.6710 C   0  0  1  0  0  0  0  0  0  0  0  0
   -1.7420    6.2060    0.2230 H   0  0  0  0  0  0  0  0  0  0  0  0
   -1.7820    3.9030   -0.1990 H   0  0  0  0  0  0  0  0  0  0  0  0
    2.4530    3.8410   -0.2520 H   0  0  0  0  0  0  0  0  0  0  0  0
    2.4940    6.1780    0.2070 H   0  0  0  0  0  0  0  0  0  0  0  0
    1.3550    8.9560    0.1350 C   0  0  0  0  0  0  0  0  0  0  0  0
    0.7290   10.3070    0.6160 C   0  0  2  0  0  0  0  0  0  0  0  0
   -0.7120    9.9680    0.7330 N   0  0  0  0  0  0  0  0  0  0  0  0
   -0.8840    8.5920    0.3320 N   0  0  0  0  0  0  0  0  0  0  0  0
    1.0860   11.5980   -0.2250 C   0  0  2  0  0  0  0  0  0  0  0  0
   -1.6580    8.1720    0.8500 H   0  0  0  0  0  0  0  0  0  0  0  0
   -1.2990   10.5520    0.1420 H   0  0  0  0  0  0  0  0  0  0  0  0
    2.3560    8.8160    0.5580 H   0  0  0  0  0  0  0  0  0  0  0  0
    1.0860   10.4800    1.6390 H   0  0  0  0  0  0  0  0  0  0  0  0
    1.4280    8.9130   -0.9590 H   0  0  0  0  0  0  0  0  0  0  0  0
    0.4590    7.8870    1.7690 H   0  0  0  0  0  0  0  0  0  0  0  0
    1.5750   12.7550    0.5560 O   0  0  0  0  0  0  0  0  0  0  0  0
    0.3300   13.6660   -1.2270 C   0  0  0  0  0  0  0  0  0  0  0  0
   -0.0740   12.2290   -0.9880 C   0  0  0  0  0  0  0  0  0  0  0  0
    1.8370   15.3070    0.0970 C   0  0  2  0  0  0  0  0  0  0  0  0
   -0.9710   12.2920   -0.3640 H   0  0  0  0  0  0  0  0  0  0  0  0
    0.4940   13.9010   -2.2800 H   0  0  0  0  0  0  0  0  0  0  0  0
   -0.5040   14.2960   -0.8960 H   0  0  0  0  0  0  0  0  0  0  0  0
   -0.3280   11.6930   -1.9050 H   0  0  0  0  0  0  0  0  0  0  0  0
    2.4440   13.6270   -1.0730 H   0  0  0  0  0  0  0  0  0  0  0  0
    1.6040   13.8540   -0.3990 C   0  0  1  0  0  0  0  0  0  0  0  0
    1.8940   11.3390   -0.9230 H   0  0  0  0  0  0  0  0  0  0  0  0
    0.8210   16.1670    0.3530 C   0  0  0  0  0  0  0  0  0  0  0  0
    1.0250   17.4930    0.4690 C   0  0  0  0  0  0  0  0  0  0  0  0
    2.2620   18.0240    0.3550 C   0  0  1  0  0  0  0  0  0  0  0  0
    3.3240   17.1890    0.1960 C   0  0  1  0  0  0  0  0  0  0  0  0
    3.0840   15.8520    0.0630 C   0  0  0  0  0  0  0  0  0  0  0  0
    2.4160   19.5190    0.3400 C   0  0  0  0  0  0  0  0  0  0  0  0
    0.1560   18.1340    0.6090 H   0  0  0  0  0  0  0  0  0  0  0  0
   -0.2070   15.8230    0.4140 H   0  0  0  0  0  0  0  0  0  0  0  0
    3.9290   15.1900   -0.1260 H   0  0  0  0  0  0  0  0  0  0  0  0
    4.7480   17.6870    0.1370 C   0  0  0  0  0  0  0  0  0  0  0  0
    4.9640   18.3680    0.9680 H   0  0  0  0  0  0  0  0  0  0  0  0
    4.9380   18.2010   -0.8110 H   0  0  0  0  0  0  0  0  0  0  0  0
    5.4750   16.8720    0.2240 H   0  0  0  0  0  0  0  0  0  0  0  0
    1.2460   20.1870    0.4200 O   0  0  0  0  0  0  0  0  0  0  0  0
    3.4450   20.1570    0.1930 O   0  0  0  0  0  0  0  0  0  0  0  0
    1.5150   21.1240    0.3190 H   0  0  0  0  0  0  0  0  0  0  0  0
  1  5  1  0  0  0  0
  2  1  1  0  0  0  0
  3  2  2  0  0  0  0
  4  2  1  1  0  0  0
  4 10  5  0  0  0  0
  6  4  5  0  0  0  0
  6  7  5  0  0  0  0
  6 13  1  0  0  0  0
  7 12  1  0  0  0  0
  8  7  5  1  0  0  0
  8 11  1  0  0  0  0
  9  8  5  0  0  0  0
  9 15  1  0  0  0  0
 10  9  5  0  0  0  0
 10 14  1  0  0  0  0
 11 19  1  0  0  0  0
 11 26  1  1  0  0  0
 16 11  1  0  0  0  0
 16 23  1  0  0  0  0
 16 25  1  0  0  0  0
 17 16  1  0  0  0  0
 17 24  1  1  0  0  0
 18 17  1  0  0  0  0
 19 18  1  0  0  0  0
 20 17  1  0  0  0  0
 20 29  1  0  0  0  0
 20 37  1  6  0  0  0
 21 19  1  0  0  0  0
 22 18  1  0  0  0  0
 27 20  1  0  0  0  0
 28 36  1  0  0  0  0
 28 33  1  0  0  0  0
 29 28  1  0  0  0  0
 29 34  1  0  0  0  0
 30 36  1  0  0  0  0
 30 38  5  6  0  0  0
 30 42  5  0  0  0  0
 31 29  1  0  0  0  0
 32 28  1  0  0  0  0
 36 27  1  0  0  0  0
 36 35  1  6  0  0  0
 38 39  5  0  0  0  0
 38 45  1  0  0  0  0
 39 44  1  0  0  0  0
 40 39  5  0  0  0  0
 40 43  1  6  0  0  0
 41 40  5  0  0  0  0
 41 47  1  6  0  0  0
 42 41  5  0  0  0  0
 42 46  1  0  0  0  0
 43 52  2  0  0  0  0
 47 48  1  0  0  0  0
 47 49  1  0  0  0  0
 47 50  1  0  0  0  0
 51 43  1  0  0  0  0
 53 51  1  0  0  0  0
M  END
