
 OpenBabel11042013083D

 30 31  0  0  1  0  0  0  0  0999 V2000
    1.1390    0.5150   -0.2180 O   0  0  0  0  0  0  0  0  0  0  0  0
   -0.0460    1.1560   -0.2740 C   0  0  0  0  0  0  0  0  0  0  0  0
   -1.0820    0.5140   -0.3390 O   0  0  0  0  0  0  0  0  0  0  0  0
   -0.0110    2.6550   -0.2350 C   0  0  1  0  0  0  0  0  0  0  0  0
    1.9390    1.0650   -0.1130 H   0  0  0  0  0  0  0  0  0  0  0  0
   -1.1310    3.3910   -0.4300 C   0  0  2  0  0  0  0  0  0  0  0  0
   -1.0560    4.7400   -0.3220 C   0  0  0  0  0  0  0  0  0  0  0  0
    0.0830    5.4160    0.0030 C   0  0  2  0  0  0  0  0  0  0  0  0
    1.2050    4.6530    0.1690 C   0  0  2  0  0  0  0  0  0  0  0  0
    1.1390    3.3090    0.0400 C   0  0  1  0  0  0  0  0  0  0  0  0
    0.0030    6.9340    0.2930 C   0  0  1  0  0  0  0  0  0  0  0  0
   -1.9860    5.2910   -0.4610 H   0  0  0  0  0  0  0  0  0  0  0  0
   -2.4300    2.8340   -0.7150 C   0  0  0  0  0  0  0  0  0  0  0  0
    2.2690    2.5880    0.2420 F   0  0  0  0  0  0  0  0  0  0  0  0
    2.8880    5.3480    0.6770 Br  0  0  0  0  0  0  0  0  0  0  0  0
   -3.5130    2.4740   -0.9070 N   0  0  0  0  0  0  0  0  0  0  0  0
    1.0420    7.9580   -0.1780 C   0  0  0  0  0  0  0  0  0  0  0  0
    0.4180    9.2510    0.3300 C   0  0  2  0  0  0  0  0  0  0  0  0
   -1.0390    9.0320    0.1830 N   0  0  0  0  0  0  0  0  0  0  0  0
   -1.2090    7.6350   -0.2000 N   0  0  0  0  0  0  0  0  0  0  0  0
    0.8830   10.5380   -0.3330 C   0  0  0  0  0  0  0  0  0  0  0  0
   -2.0470    7.2630    0.2520 H   0  0  0  0  0  0  0  0  0  0  0  0
   -1.4090    9.6860   -0.5190 H   0  0  0  0  0  0  0  0  0  0  0  0
    2.0260    7.8510    0.2790 H   0  0  0  0  0  0  0  0  0  0  0  0
    0.6300    9.3660    1.4010 H   0  0  0  0  0  0  0  0  0  0  0  0
    1.1700    7.9540   -1.2690 H   0  0  0  0  0  0  0  0  0  0  0  0
   -0.0340    6.9790    1.3940 H   0  0  0  0  0  0  0  0  0  0  0  0
   -0.0900   11.4760   -0.4120 O   0  0  0  0  0  0  0  0  0  0  0  0
    2.0240   10.8060   -0.6740 O   0  0  0  0  0  0  0  0  0  0  0  0
    0.3700   12.2930   -0.7000 H   0  0  0  0  0  0  0  0  0  0  0  0
  1  5  1  0  0  0  0
  2  1  1  0  0  0  0
  3  2  2  0  0  0  0
  4  2  1  1  0  0  0
  4 10  5  0  0  0  0
  6  4  5  0  0  0  0
  6  7  5  0  0  0  0
  6 13  1  1  0  0  0
  7 12  1  0  0  0  0
  8  7  5  1  0  0  0
  8 11  1  0  0  0  0
  9  8  5  0  0  0  0
  9 15  1  1  0  0  0
 10  9  5  0  0  0  0
 10 14  1  1  0  0  0
 11 20  1  0  0  0  0
 11 27  1  1  0  0  0
 13 16  3  0  0  0  0
 17 11  1  0  0  0  0
 17 24  1  0  0  0  0
 17 26  1  0  0  0  0
 18 17  1  0  0  0  0
 18 25  1  1  0  0  0
 19 18  1  0  0  0  0
 20 19  1  0  0  0  0
 21 18  1  0  0  0  0
 21 29  2  0  0  0  0
 22 20  1  0  0  0  0
 23 19  1  0  0  0  0
 28 21  1  0  0  0  0
 30 28  1  0  0  0  0
M  END
