30

O          1.13900        0.51500       -0.21800
C         -0.04600        1.15600       -0.27400
O         -1.08200        0.51400       -0.33900
C         -0.01100        2.65500       -0.23500
H          1.93900        1.06500       -0.11300
C         -1.13100        3.39100       -0.43000
C         -1.05600        4.74000       -0.32200
C          0.08300        5.41600        0.00300
C          1.20500        4.65300        0.16900
C          1.13900        3.30900        0.04000
C          0.00300        6.93400        0.29300
H         -1.98600        5.29100       -0.46100
C         -2.43000        2.83400       -0.71500
F          2.26900        2.58800        0.24200
Br         2.88800        5.34800        0.67700
N         -3.51300        2.47400       -0.90700
C          1.04200        7.95800       -0.17800
C          0.41800        9.25100        0.33000
N         -1.03900        9.03200        0.18300
N         -1.20900        7.63500       -0.20000
C          0.88300       10.53800       -0.33300
H         -2.04700        7.26300        0.25200
H         -1.40900        9.68600       -0.51900
H          2.02600        7.85100        0.27900
H          0.63000        9.36600        1.40100
H          1.17000        7.95400       -1.26900
H         -0.03400        6.97900        1.39400
O         -0.09000       11.47600       -0.41200
O          2.02400       10.80600       -0.67400
H          0.37000       12.29300       -0.70000
