31

O          1.21200        0.72100       -0.35200
C          0.15000        1.39700        0.14000
O         -0.80100        0.77400        0.58700
C          0.21900        2.89900        0.04800
H          2.00200        1.25900       -0.54600
C         -0.93900        3.60700       -0.07100
C         -0.91500        4.95800       -0.13800
C          0.24300        5.64000       -0.10700
C          1.39000        4.94600        0.02400
C          1.38600        3.59500        0.10200
C          0.25200        7.06100       -0.20200
H         -1.85000        5.51000       -0.22500
Cl        -2.53100        2.90100       -0.17500
Cl         2.95700        2.86100        0.28200
H          2.33500        5.48600        0.05900
C          0.22300        8.26200       -0.29300
C          0.11700        9.72000       -0.40900
C          1.41200       10.45600       -0.10200
C          0.98000       11.73500        0.61000
N         -0.49000       11.63800        0.77400
N         -0.81200       10.24400        0.59000
C          1.37200       12.99900       -0.15500
H         -1.78100       10.07900        0.31200
H         -0.93300       12.26000        0.08400
H          1.97400       10.64500       -1.02300
H          1.44200       11.80800        1.60200
H          2.05700        9.87300        0.56700
H         -0.23200        9.99400       -1.41300
O          0.36800       13.89300       -0.30200
O          2.48000       13.25400       -0.60200
H          0.79800       14.67400       -0.71000
