43

O          1.66700        2.20600       -0.20000
C          0.54300        2.85700       -0.56700
O         -0.43600        2.27400       -1.00300
C          0.59500        4.33000       -0.32400
H          2.30000        2.74700        0.30400
C         -0.57000        4.90600        0.02500
C         -0.63500        6.22600        0.27500
C          0.47200        7.02000        0.17200
C          1.63400        6.42600       -0.19700
C          1.70000        5.09700       -0.44300
C          0.36500        8.51800        0.50000
O         -1.85800        6.76300        0.66000
H         -1.46500        4.29500        0.11400
H          2.64900        4.66400       -0.74800
H          2.54200        7.01700       -0.29500
C          1.36800        9.60600        0.06400
C          0.60100       10.89400        0.45200
N         -0.82900       10.50100        0.30000
N         -0.84200        9.12300       -0.08300
C          0.85700       12.20800       -0.32300
H         -1.65400        8.62300        0.30000
H         -1.25900       11.05000       -0.44700
H          2.32100        9.52500        0.59700
H          0.76900       11.07800        1.52200
H          1.56500        9.56300       -1.01600
H          0.29500        8.56100        1.60000
H         -2.59400        6.13600        0.54900
C          2.10800       13.03400       -0.02500
C          1.73400       14.37400       -0.66600
N          0.26800       14.46800       -0.53100
N         -0.16700       13.21900        0.03000
C          2.35400       15.59400       -0.13300
H         -1.09800       12.95000       -0.29000
H          0.03300       15.23500        0.10800
H          3.00700       12.60600       -0.47900
H          1.95200       14.32200       -1.74000
H          2.28000       13.13500        1.05500
H          0.80100       12.00300       -1.40100
C          2.67300       16.71800        0.15100
C          2.90900       18.12100        0.36900
O          1.79700       18.87400        0.30100
O          4.01300       18.60100        0.56100
H          2.11700       19.79100        0.42100
