
 OpenBabel11042013083D

 25 25  0  0  1  0  0  0  0  0999 V2000
    0.4860    0.3630    0.1680 O   0  0  0  0  0  0  0  0  0  0  0  0
   -0.6880    1.0270    0.2360 C   0  0  0  0  0  0  0  0  0  0  0  0
   -1.7120    0.3740    0.3520 O   0  0  0  0  0  0  0  0  0  0  0  0
   -0.6140    2.5440    0.1210 C   0  0  1  0  0  0  0  0  0  0  0  0
    1.2200    0.9020    0.5180 H   0  0  0  0  0  0  0  0  0  0  0  0
   -1.7460    3.2640   -0.1550 C   0  0  1  0  0  0  0  0  0  0  0  0
   -1.6930    4.6270   -0.2020 C   0  0  1  0  0  0  0  0  0  0  0  0
   -0.5220    5.2730    0.0310 C   0  0  1  0  0  0  0  0  0  0  0  0
    0.6120    4.5600    0.2430 C   0  0  2  0  0  0  0  0  0  0  0  0
    0.5760    3.1960    0.2930 C   0  0  1  0  0  0  0  0  0  0  0  0
   -0.4330    6.7740    0.0210 C   0  0  0  0  0  0  0  0  0  0  0  0
   -2.8730    5.3740   -0.5370 C   0  0  0  0  0  0  0  0  0  0  0  0
   -3.4460    2.4370   -0.5170 Br  0  0  0  0  0  0  0  0  0  0  0  0
    2.7680    2.4220   -0.3460 C   0  0  0  0  0  0  0  0  0  0  0  0
    1.8670    5.2350    0.4540 N   0  0  0  0  0  0  0  0  0  0  0  0
   -3.8270    5.9680   -0.8490 N   0  0  0  0  0  0  0  0  0  0  0  0
    2.6070    4.9040   -0.1560 H   0  0  0  0  0  0  0  0  0  0  0  0
    1.8340    6.2530    0.3180 H   0  0  0  0  0  0  0  0  0  0  0  0
    3.2860    1.4650   -0.2280 H   0  0  0  0  0  0  0  0  0  0  0  0
    2.3760    2.4790   -1.3650 H   0  0  0  0  0  0  0  0  0  0  0  0
    3.5110    3.1980   -0.1550 H   0  0  0  0  0  0  0  0  0  0  0  0
    1.7210    2.4620    0.6350 O   0  0  0  0  0  0  0  0  0  0  0  0
   -1.5310    7.3900    0.4820 O   0  0  0  0  0  0  0  0  0  0  0  0
    0.5450    7.4300   -0.2970 O   0  0  0  0  0  0  0  0  0  0  0  0
   -1.3550    8.3500    0.3840 H   0  0  0  0  0  0  0  0  0  0  0  0
  1  5  1  0  0  0  0
  2  1  1  0  0  0  0
  3  2  2  0  0  0  0
  4  2  1  1  0  0  0
  4 10  5  0  0  0  0
  6  4  5  0  0  0  0
  6  7  5  0  0  0  0
  6 13  1  6  0  0  0
  7 12  1  6  0  0  0
  8  7  5  0  0  0  0
  8 11  1  6  0  0  0
  9  8  5  0  0  0  0
  9 15  1  1  0  0  0
 10  9  5  0  0  0  0
 10 22  1  1  0  0  0
 11 24  2  0  0  0  0
 12 16  3  0  0  0  0
 14 19  1  0  0  0  0
 14 20  1  0  0  0  0
 14 21  1  0  0  0  0
 14 22  1  0  0  0  0
 15 17  1  0  0  0  0
 15 18  1  0  0  0  0
 23 11  1  0  0  0  0
 25 23  1  0  0  0  0
M  END
