
 OpenBabel11042013083D

 30 31  0  0  1  0  0  0  0  0999 V2000
    0.9670   -0.3510    0.0000 O   0  0  0  0  0  0  0  0  0  0  0  0
   -0.1430    0.4040    0.0000 C   0  0  0  0  0  0  0  0  0  0  0  0
   -1.2560   -0.1050    0.0000 O   0  0  0  0  0  0  0  0  0  0  0  0
    0.0880    1.8740    0.0000 C   0  0  1  0  0  0  0  0  0  0  0  0
    1.7930    0.1670    0.0000 H   0  0  0  0  0  0  0  0  0  0  0  0
   -1.0700    2.5740    0.0000 C   0  0  0  0  0  0  0  0  0  0  0  0
   -1.0440    3.9230   -0.0000 C   0  0  0  0  0  0  0  0  0  0  0  0
    0.1450    4.5450    0.0000 C   0  0  1  0  0  0  0  0  0  0  0  0
    1.2900    3.8510    0.0000 C   0  0  0  0  0  0  0  0  0  0  0  0
    1.2860    2.5150    0.0000 C   0  0  2  0  0  0  0  0  0  0  0  0
    0.3300    5.8660    0.0000 N   0  0  0  0  0  0  0  0  0  0  0  0
   -1.9820    4.4780   -0.0000 H   0  0  0  0  0  0  0  0  0  0  0  0
   -2.0500    2.1050   -0.0000 H   0  0  0  0  0  0  0  0  0  0  0  0
    3.0160    1.7610    0.0000 Br  0  0  0  0  0  0  0  0  0  0  0  0
    2.2140    4.4280    0.0000 H   0  0  0  0  0  0  0  0  0  0  0  0
   -0.6880    6.5380   -0.0000 N   0  0  0  0  0  0  0  0  0  0  0  0
   -0.4630    7.8680   -0.0000 C   0  0  1  0  0  0  0  0  0  0  0  0
   -1.5540    8.6600   -0.0000 C   0  0  1  0  0  0  0  0  0  0  0  0
   -1.3760    9.9740   -0.0000 C   0  0  0  0  0  0  0  0  0  0  0  0
   -0.1450   10.5150   -0.0000 C   0  0  1  0  0  0  0  0  0  0  0  0
    0.9560    9.7380   -0.0000 C   0  0  0  0  0  0  0  0  0  0  0  0
    0.7920    8.4080   -0.0000 C   0  0  0  0  0  0  0  0  0  0  0  0
   -0.0290   11.9840   -0.0000 C   0  0  0  0  0  0  0  0  0  0  0  0
   -2.2680   10.5990    0.0000 H   0  0  0  0  0  0  0  0  0  0  0  0
   -3.3130    7.9600    0.0000 Br  0  0  0  0  0  0  0  0  0  0  0  0
    1.6740    7.7730   -0.0000 H   0  0  0  0  0  0  0  0  0  0  0  0
    1.9680   10.1380   -0.0000 H   0  0  0  0  0  0  0  0  0  0  0  0
   -1.2470   12.5610   -0.0000 O   0  0  0  0  0  0  0  0  0  0  0  0
    0.9990   12.6320   -0.0000 O   0  0  0  0  0  0  0  0  0  0  0  0
   -1.0980   13.5220    0.0000 H   0  0  0  0  0  0  0  0  0  0  0  0
  1  5  1  0  0  0  0
  2  1  1  0  0  0  0
  3  2  2  0  0  0  0
  4  2  1  1  0  0  0
  4 10  5  0  0  0  0
  6  4  5  0  0  0  0
  6  7  5  0  0  0  0
  6 13  1  0  0  0  0
  7 12  1  0  0  0  0
  8  7  5  0  0  0  0
  8 11  1  6  0  0  0
  9  8  5  0  0  0  0
  9 15  1  0  0  0  0
 10  9  5  0  0  0  0
 10 14  1  6  0  0  0
 16 11  2  0  0  0  0
 17 16  1  1  0  0  0
 17 22  5  0  0  0  0
 18 17  5  0  0  0  0
 18 19  5  0  0  0  0
 18 25  1  6  0  0  0
 19 24  1  0  0  0  0
 20 19  5  0  0  0  0
 20 23  1  6  0  0  0
 21 20  5  0  0  0  0
 21 27  1  0  0  0  0
 22 21  5  0  0  0  0
 22 26  1  0  0  0  0
 23 29  2  0  0  0  0
 28 23  1  0  0  0  0
 30 28  1  0  0  0  0
M  END
