25

O          1.66100        0.22800        0.29600
C          0.62600        0.83600       -0.32400
O         -0.22600        0.19900       -0.92900
C          0.55100        2.31400       -0.13600
H          2.32800        0.83900        0.66200
C         -0.63400        2.85000        0.25400
C         -0.77900        4.19700        0.36400
C          0.29700        4.99200        0.14000
C          1.50000        4.46300       -0.19600
C          1.61300        3.12200       -0.35600
C          0.22100        6.46800        0.25100
C         -2.92800        4.86800       -0.30200
N         -1.74200        2.01200        0.59100
Cl         3.16800        2.47600       -0.83500
O          2.63000        5.26000       -0.38300
H         -1.81000        1.10900        0.11800
H         -2.63900        2.44900        0.76100
H          2.52700        6.17300       -0.03800
H         -2.44500        5.14200       -1.24600
H         -3.49000        3.94000       -0.43600
H         -3.64200        5.65400       -0.03700
O         -1.99600        4.74200        0.77800
O         -0.88300        7.01300       -0.28400
O          1.13400        7.18100        0.64400
H         -0.75700        7.97900       -0.18600
