
 OpenBabel11042013083D

 25 25  0  0  1  0  0  0  0  0999 V2000
    1.6610    0.2280    0.2960 O   0  0  0  0  0  0  0  0  0  0  0  0
    0.6260    0.8360   -0.3240 C   0  0  0  0  0  0  0  0  0  0  0  0
   -0.2260    0.1990   -0.9290 O   0  0  0  0  0  0  0  0  0  0  0  0
    0.5510    2.3140   -0.1360 C   0  0  2  0  0  0  0  0  0  0  0  0
    2.3280    0.8390    0.6620 H   0  0  0  0  0  0  0  0  0  0  0  0
   -0.6340    2.8500    0.2540 C   0  0  2  0  0  0  0  0  0  0  0  0
   -0.7790    4.1970    0.3640 C   0  0  2  0  0  0  0  0  0  0  0  0
    0.2970    4.9920    0.1400 C   0  0  2  0  0  0  0  0  0  0  0  0
    1.5000    4.4630   -0.1960 C   0  0  1  0  0  0  0  0  0  0  0  0
    1.6130    3.1220   -0.3560 C   0  0  1  0  0  0  0  0  0  0  0  0
    0.2210    6.4680    0.2510 C   0  0  0  0  0  0  0  0  0  0  0  0
   -2.9280    4.8680   -0.3020 C   0  0  0  0  0  0  0  0  0  0  0  0
   -1.7420    2.0120    0.5910 N   0  0  0  0  0  0  0  0  0  0  0  0
    3.1680    2.4760   -0.8350 Cl  0  0  0  0  0  0  0  0  0  0  0  0
    2.6300    5.2600   -0.3830 O   0  0  0  0  0  0  0  0  0  0  0  0
   -1.8100    1.1090    0.1180 H   0  0  0  0  0  0  0  0  0  0  0  0
   -2.6390    2.4490    0.7610 H   0  0  0  0  0  0  0  0  0  0  0  0
    2.5270    6.1730   -0.0380 H   0  0  0  0  0  0  0  0  0  0  0  0
   -2.4450    5.1420   -1.2460 H   0  0  0  0  0  0  0  0  0  0  0  0
   -3.4900    3.9400   -0.4360 H   0  0  0  0  0  0  0  0  0  0  0  0
   -3.6420    5.6540   -0.0370 H   0  0  0  0  0  0  0  0  0  0  0  0
   -1.9960    4.7420    0.7780 O   0  0  0  0  0  0  0  0  0  0  0  0
   -0.8830    7.0130   -0.2840 O   0  0  0  0  0  0  0  0  0  0  0  0
    1.1340    7.1810    0.6440 O   0  0  0  0  0  0  0  0  0  0  0  0
   -0.7570    7.9790   -0.1860 H   0  0  0  0  0  0  0  0  0  0  0  0
  1  5  1  0  0  0  0
  2  1  1  0  0  0  0
  3  2  2  0  0  0  0
  4  2  1  6  0  0  0
  4 10  5  0  0  0  0
  6  4  5  0  0  0  0
  6  7  5  0  0  0  0
  6 13  1  1  0  0  0
  7 22  1  1  0  0  0
  8  7  5  0  0  0  0
  8 11  1  1  0  0  0
  9  8  5  0  0  0  0
  9 15  1  6  0  0  0
 10  9  5  0  0  0  0
 10 14  1  1  0  0  0
 11 24  2  0  0  0  0
 12 19  1  0  0  0  0
 12 20  1  0  0  0  0
 12 21  1  0  0  0  0
 12 22  1  0  0  0  0
 13 16  1  0  0  0  0
 13 17  1  0  0  0  0
 15 18  1  0  0  0  0
 23 11  1  0  0  0  0
 25 23  1  0  0  0  0
M  END
