
 OpenBabel11042013083D

 40 42  0  0  1  0  0  0  0  0999 V2000
    1.5460   -0.5570   -0.0780 O   0  0  0  0  0  0  0  0  0  0  0  0
    0.3040   -0.0710    0.1650 C   0  0  0  0  0  0  0  0  0  0  0  0
   -0.6120   -0.8400    0.4120 O   0  0  0  0  0  0  0  0  0  0  0  0
    0.1940    1.4310    0.0890 C   0  0  1  0  0  0  0  0  0  0  0  0
    2.1890    0.0740   -0.4370 H   0  0  0  0  0  0  0  0  0  0  0  0
   -1.0320    1.9970   -0.0740 C   0  0  2  0  0  0  0  0  0  0  0  0
   -1.1310    3.3350   -0.1670 C   0  0  0  0  0  0  0  0  0  0  0  0
   -0.0500    4.1530   -0.1130 C   0  0  2  0  0  0  0  0  0  0  0  0
    1.1570    3.5800    0.0820 C   0  0  0  0  0  0  0  0  0  0  0  0
    1.2760    2.2430    0.1970 C   0  0  0  0  0  0  0  0  0  0  0  0
   -0.3100    5.6520   -0.2450 C   0  0  2  0  0  0  0  0  0  0  0  0
   -2.1180    3.7830   -0.2860 H   0  0  0  0  0  0  0  0  0  0  0  0
   -2.1900    1.2430   -0.1410 O   0  0  0  0  0  0  0  0  0  0  0  0
    2.2640    1.8510    0.3870 H   0  0  0  0  0  0  0  0  0  0  0  0
    2.0540    4.1820    0.1780 H   0  0  0  0  0  0  0  0  0  0  0  0
    0.7990    6.6920   -0.3580 C   0  0  0  0  0  0  0  0  0  0  0  0
    0.5340    7.5350    0.7940 N   0  0  0  0  0  0  0  0  0  0  0  0
   -0.5230    7.0610    1.5230 N   0  0  0  0  0  0  0  0  0  0  0  0
   -1.0290    6.0570    0.9810 N   0  0  0  0  0  0  0  0  0  0  0  0
    0.5610    8.9840    0.7470 C   0  0  1  0  0  0  0  0  0  0  0  0
    1.8160    6.3010   -0.2850 H   0  0  0  0  0  0  0  0  0  0  0  0
    0.7060    7.2680   -1.2840 H   0  0  0  0  0  0  0  0  0  0  0  0
   -0.9750    5.7960   -1.1090 H   0  0  0  0  0  0  0  0  0  0  0  0
    1.6630    9.5540    0.0360 O   0  0  0  0  0  0  0  0  0  0  0  0
   -0.2220   11.0210   -0.0430 C   0  0  0  0  0  0  0  0  0  0  0  0
   -0.6420    9.5820    0.0580 C   0  0  0  0  0  0  0  0  0  0  0  0
    1.7770   11.6580   -1.3140 N   0  0  0  0  0  0  0  0  0  0  0  0
   -1.5790    9.4430    0.6000 H   0  0  0  0  0  0  0  0  0  0  0  0
   -0.6820   11.4960   -0.9150 H   0  0  0  0  0  0  0  0  0  0  0  0
   -0.5450   11.5780    0.8440 H   0  0  0  0  0  0  0  0  0  0  0  0
   -0.7620    9.1650   -0.9510 H   0  0  0  0  0  0  0  0  0  0  0  0
    1.7450   11.4540    0.7970 H   0  0  0  0  0  0  0  0  0  0  0  0
    1.3150   10.9730   -0.0910 C   0  0  2  0  0  0  0  0  0  0  0  0
    0.6260    9.3240    1.7910 H   0  0  0  0  0  0  0  0  0  0  0  0
    1.5450   12.8840   -1.5130 N   0  0  0  0  0  0  0  0  0  0  0  0
    1.2610   13.7040   -0.4510 C   0  0  0  0  0  0  0  0  0  0  0  0
   -3.0040    1.7700   -0.0760 H   0  0  0  0  0  0  0  0  0  0  0  0
   -0.0260   14.1200   -0.4410 O   0  0  0  0  0  0  0  0  0  0  0  0
    2.0280   14.0980    0.4170 O   0  0  0  0  0  0  0  0  0  0  0  0
   -0.0520   14.7410    0.3170 H   0  0  0  0  0  0  0  0  0  0  0  0
  1  5  1  0  0  0  0
  2  1  1  0  0  0  0
  3  2  2  0  0  0  0
  4  2  1  1  0  0  0
  4 10  5  0  0  0  0
  6  4  5  0  0  0  0
  6  7  5  0  0  0  0
  6 13  1  1  0  0  0
  7 12  1  0  0  0  0
  8  7  5  1  0  0  0
  8 11  1  0  0  0  0
  9  8  5  0  0  0  0
  9 15  1  0  0  0  0
 10  9  5  0  0  0  0
 10 14  1  0  0  0  0
 11 19  1  0  0  0  0
 11 23  1  6  0  0  0
 13 37  1  0  0  0  0
 16 11  1  0  0  0  0
 16 21  1  0  0  0  0
 16 22  1  0  0  0  0
 17 16  1  0  0  0  0
 18 17  1  0  0  0  0
 19 18  2  0  0  0  0
 20 17  1  0  0  0  0
 20 26  1  0  0  0  0
 20 34  1  1  0  0  0
 24 20  1  0  0  0  0
 25 33  1  0  0  0  0
 25 30  1  0  0  0  0
 26 25  1  0  0  0  0
 26 31  1  0  0  0  0
 27 33  1  0  0  0  0
 28 26  1  0  0  0  0
 29 25  1  0  0  0  0
 33 24  1  0  0  0  0
 33 32  1  1  0  0  0
 35 27  2  0  0  0  0
 36 35  1  0  0  0  0
 36 39  2  0  0  0  0
 38 36  1  0  0  0  0
 40 38  1  0  0  0  0
M  END
