
 OpenBabel11042013043D

 37 38  0  0  1  0  0  0  0  0999 V2000
    1.9900    0.7790   -0.4340 O   0  0  0  0  0  0  0  0  0  0  0  0
    0.8580    1.2650    0.1240 C   0  0  0  0  0  0  0  0  0  0  0  0
    0.0530    0.5500    0.7050 O   0  0  0  0  0  0  0  0  0  0  0  0
    0.7040    2.7400   -0.0110 C   0  0  1  0  0  0  0  0  0  0  0  0
    2.4450    1.4260   -1.0010 H   0  0  0  0  0  0  0  0  0  0  0  0
   -0.4800    3.2860   -0.3700 C   0  0  2  0  0  0  0  0  0  0  0  0
   -0.6440    4.6390   -0.3420 C   0  0  2  0  0  0  0  0  0  0  0  0
    0.4050    5.4520   -0.0010 C   0  0  2  0  0  0  0  0  0  0  0  0
    1.6000    4.8730    0.2760 C   0  0  0  0  0  0  0  0  0  0  0  0
    1.7480    3.5350    0.2920 C   0  0  0  0  0  0  0  0  0  0  0  0
    0.2570    6.9560    0.2240 C   0  0  1  0  0  0  0  0  0  0  0  0
   -2.8620    5.0150    0.3970 C   0  0  0  0  0  0  0  0  0  0  0  0
   -1.5630    2.4450   -0.7750 N   0  0  0  0  0  0  0  0  0  0  0  0
    2.7060    3.1160    0.5930 H   0  0  0  0  0  0  0  0  0  0  0  0
    2.4570    5.4770    0.5600 H   0  0  0  0  0  0  0  0  0  0  0  0
   -2.4600    2.8850   -0.9360 H   0  0  0  0  0  0  0  0  0  0  0  0
   -1.6350    1.5450   -0.2980 H   0  0  0  0  0  0  0  0  0  0  0  0
    1.3980    7.9500   -0.0360 C   0  0  0  0  0  0  0  0  0  0  0  0
    0.6990    9.2400    0.3840 C   0  0  2  0  0  0  0  0  0  0  0  0
   -0.7030    9.0580   -0.0490 N   0  0  0  0  0  0  0  0  0  0  0  0
   -0.7990    7.6760   -0.4970 N   0  0  0  0  0  0  0  0  0  0  0  0
    1.2320   10.5140   -0.0980 C   0  0  0  0  0  0  0  0  0  0  0  0
   -1.7060    7.2580   -0.2830 H   0  0  0  0  0  0  0  0  0  0  0  0
   -0.9000    9.6890   -0.8310 H   0  0  0  0  0  0  0  0  0  0  0  0
    2.2880    7.7620    0.5740 H   0  0  0  0  0  0  0  0  0  0  0  0
    0.6960    9.2790    1.4820 H   0  0  0  0  0  0  0  0  0  0  0  0
    1.7000    7.9610   -1.0920 H   0  0  0  0  0  0  0  0  0  0  0  0
    0.0180    7.0110    1.3010 H   0  0  0  0  0  0  0  0  0  0  0  0
   -2.4230    4.7300    1.3580 H   0  0  0  0  0  0  0  0  0  0  0  0
   -3.5930    4.2660    0.0780 H   0  0  0  0  0  0  0  0  0  0  0  0
   -3.4030    5.9580    0.5270 H   0  0  0  0  0  0  0  0  0  0  0  0
   -1.8890    5.2040   -0.6350 O   0  0  0  0  0  0  0  0  0  0  0  0
    1.4450   11.6700   -0.3320 C   0  0  0  0  0  0  0  0  0  0  0  0
    1.5200   13.0980   -0.4820 C   0  0  0  0  0  0  0  0  0  0  0  0
    0.3330   13.7120   -0.3290 O   0  0  0  0  0  0  0  0  0  0  0  0
    2.5580   13.7070   -0.6870 O   0  0  0  0  0  0  0  0  0  0  0  0
    0.5410   14.6640   -0.4120 H   0  0  0  0  0  0  0  0  0  0  0  0
  1  5  1  0  0  0  0
  2  1  1  0  0  0  0
  3  2  2  0  0  0  0
  4  2  1  1  0  0  0
  4 10  5  0  0  0  0
  6  4  5  0  0  0  0
  6  7  5  0  0  0  0
  6 13  1  1  0  0  0
  7 32  1  1  0  0  0
  8  7  5  0  0  0  0
  8  9  5  1  0  0  0
  8 11  1  0  0  0  0
  9 15  1  0  0  0  0
 10  9  5  0  0  0  0
 10 14  1  0  0  0  0
 11 21  1  0  0  0  0
 11 28  1  1  0  0  0
 12 29  1  0  0  0  0
 12 30  1  0  0  0  0
 12 31  1  0  0  0  0
 12 32  1  0  0  0  0
 13 16  1  0  0  0  0
 13 17  1  0  0  0  0
 18 11  1  0  0  0  0
 18 25  1  0  0  0  0
 18 27  1  0  0  0  0
 19 18  1  0  0  0  0
 19 26  1  1  0  0  0
 20 19  1  0  0  0  0
 21 20  1  0  0  0  0
 22 19  1  0  0  0  0
 23 21  1  0  0  0  0
 24 20  1  0  0  0  0
 33 22  3  0  0  0  0
 34 33  1  0  0  0  0
 34 36  2  0  0  0  0
 35 34  1  0  0  0  0
 37 35  1  0  0  0  0
M  END
