37

O          1.99000        0.77900       -0.43400
C          0.85800        1.26500        0.12400
O          0.05300        0.55000        0.70500
C          0.70400        2.74000       -0.01100
H          2.44500        1.42600       -1.00100
C         -0.48000        3.28600       -0.37000
C         -0.64400        4.63900       -0.34200
C          0.40500        5.45200       -0.00100
C          1.60000        4.87300        0.27600
C          1.74800        3.53500        0.29200
C          0.25700        6.95600        0.22400
C         -2.86200        5.01500        0.39700
N         -1.56300        2.44500       -0.77500
H          2.70600        3.11600        0.59300
H          2.45700        5.47700        0.56000
H         -2.46000        2.88500       -0.93600
H         -1.63500        1.54500       -0.29800
C          1.39800        7.95000       -0.03600
C          0.69900        9.24000        0.38400
N         -0.70300        9.05800       -0.04900
N         -0.79900        7.67600       -0.49700
C          1.23200       10.51400       -0.09800
H         -1.70600        7.25800       -0.28300
H         -0.90000        9.68900       -0.83100
H          2.28800        7.76200        0.57400
H          0.69600        9.27900        1.48200
H          1.70000        7.96100       -1.09200
H          0.01800        7.01100        1.30100
H         -2.42300        4.73000        1.35800
H         -3.59300        4.26600        0.07800
H         -3.40300        5.95800        0.52700
O         -1.88900        5.20400       -0.63500
C          1.44500       11.67000       -0.33200
C          1.52000       13.09800       -0.48200
O          0.33300       13.71200       -0.32900
O          2.55800       13.70700       -0.68700
H          0.54100       14.66400       -0.41200
