35

O          0.62200        0.34700        0.01800
C         -0.48500        1.10200        0.17900
O         -1.58200        0.58800        0.35700
C         -0.26200        2.59100        0.12300
H          1.40600        0.92500       -0.14400
C         -1.38000        3.33100        0.20500
C         -1.34900        4.67600        0.12200
C         -0.16900        5.35900        0.01200
C          0.98700        4.59900       -0.05600
C          0.91700        3.23200       -0.03500
C         -0.13600        6.93500       -0.18800
C         -2.64300        5.28500        0.06800
H         -2.34700        2.82800        0.29500
N          2.10100        2.41600       -0.24600
C          2.33700        5.26700       -0.21400
H          2.58600        2.75800       -1.08700
H          2.80100        2.64800        0.47000
H          2.33200        5.95000       -1.06900
H          3.17500        4.59200       -0.40500
H          2.59800        5.78900        0.71300
N         -3.68100        5.79100       -0.05300
C          0.94500        7.89700        0.37400
C          0.45400        9.23000       -0.18800
N         -1.01500        9.10000       -0.14900
N         -1.29300        7.73700        0.26800
C          0.91100       10.54800        0.42600
H         -2.17000        7.45300       -0.17800
H         -1.40600        9.80100        0.49400
H          1.95700        7.72800        0.00600
H          0.75100        9.29300       -1.24200
H          0.98200        7.88900        1.47300
H         -0.09800        7.01800       -1.28700
O         -0.06200       11.49400        0.40400
O          2.04800       10.83900        0.76300
H          0.38500       12.34900        0.57400
