
 OpenBabel11042013083D

 35 36  0  0  1  0  0  0  0  0999 V2000
    0.6220    0.3470    0.0180 O   0  0  0  0  0  0  0  0  0  0  0  0
   -0.4850    1.1020    0.1790 C   0  0  0  0  0  0  0  0  0  0  0  0
   -1.5820    0.5880    0.3570 O   0  0  0  0  0  0  0  0  0  0  0  0
   -0.2620    2.5910    0.1230 C   0  0  2  0  0  0  0  0  0  0  0  0
    1.4060    0.9250   -0.1440 H   0  0  0  0  0  0  0  0  0  0  0  0
   -1.3800    3.3310    0.2050 C   0  0  0  0  0  0  0  0  0  0  0  0
   -1.3490    4.6760    0.1220 C   0  0  1  0  0  0  0  0  0  0  0  0
   -0.1690    5.3590    0.0120 C   0  0  1  0  0  0  0  0  0  0  0  0
    0.9870    4.5990   -0.0560 C   0  0  1  0  0  0  0  0  0  0  0  0
    0.9170    3.2320   -0.0350 C   0  0  2  0  0  0  0  0  0  0  0  0
   -0.1360    6.9350   -0.1880 C   0  0  2  0  0  0  0  0  0  0  0  0
   -2.6430    5.2850    0.0680 C   0  0  0  0  0  0  0  0  0  0  0  0
   -2.3470    2.8280    0.2950 H   0  0  0  0  0  0  0  0  0  0  0  0
    2.1010    2.4160   -0.2460 N   0  0  0  0  0  0  0  0  0  0  0  0
    2.3370    5.2670   -0.2140 C   0  0  0  0  0  0  0  0  0  0  0  0
    2.5860    2.7580   -1.0870 H   0  0  0  0  0  0  0  0  0  0  0  0
    2.8010    2.6480    0.4700 H   0  0  0  0  0  0  0  0  0  0  0  0
    2.3320    5.9500   -1.0690 H   0  0  0  0  0  0  0  0  0  0  0  0
    3.1750    4.5920   -0.4050 H   0  0  0  0  0  0  0  0  0  0  0  0
    2.5980    5.7890    0.7130 H   0  0  0  0  0  0  0  0  0  0  0  0
   -3.6810    5.7910   -0.0530 N   0  0  0  0  0  0  0  0  0  0  0  0
    0.9450    7.8970    0.3740 C   0  0  0  0  0  0  0  0  0  0  0  0
    0.4540    9.2300   -0.1880 C   0  0  1  0  0  0  0  0  0  0  0  0
   -1.0150    9.1000   -0.1490 N   0  0  0  0  0  0  0  0  0  0  0  0
   -1.2930    7.7370    0.2680 N   0  0  0  0  0  0  0  0  0  0  0  0
    0.9110   10.5480    0.4260 C   0  0  0  0  0  0  0  0  0  0  0  0
   -2.1700    7.4530   -0.1780 H   0  0  0  0  0  0  0  0  0  0  0  0
   -1.4060    9.8010    0.4940 H   0  0  0  0  0  0  0  0  0  0  0  0
    1.9570    7.7280    0.0060 H   0  0  0  0  0  0  0  0  0  0  0  0
    0.7510    9.2930   -1.2420 H   0  0  0  0  0  0  0  0  0  0  0  0
    0.9820    7.8890    1.4730 H   0  0  0  0  0  0  0  0  0  0  0  0
   -0.0980    7.0180   -1.2870 H   0  0  0  0  0  0  0  0  0  0  0  0
   -0.0620   11.4940    0.4040 O   0  0  0  0  0  0  0  0  0  0  0  0
    2.0480   10.8390    0.7630 O   0  0  0  0  0  0  0  0  0  0  0  0
    0.3850   12.3490    0.5740 H   0  0  0  0  0  0  0  0  0  0  0  0
  1  5  1  0  0  0  0
  2  1  1  0  0  0  0
  3  2  2  0  0  0  0
  4  2  1  6  0  0  0
  4 10  5  0  0  0  0
  6  4  5  0  0  0  0
  6  7  5  0  0  0  0
  6 13  1  0  0  0  0
  7 12  1  6  0  0  0
  8  7  5  0  0  0  0
  8 11  1  6  0  0  0
  9  8  5  0  0  0  0
  9 15  1  6  0  0  0
 10  9  5  0  0  0  0
 10 14  1  6  0  0  0
 11 25  1  0  0  0  0
 11 32  1  6  0  0  0
 12 21  3  0  0  0  0
 14 16  1  0  0  0  0
 14 17  1  0  0  0  0
 15 18  1  0  0  0  0
 15 19  1  0  0  0  0
 15 20  1  0  0  0  0
 22 11  1  0  0  0  0
 22 29  1  0  0  0  0
 22 31  1  0  0  0  0
 23 22  1  0  0  0  0
 23 30  1  6  0  0  0
 24 23  1  0  0  0  0
 25 24  1  0  0  0  0
 26 23  1  0  0  0  0
 26 34  2  0  0  0  0
 27 25  1  0  0  0  0
 28 24  1  0  0  0  0
 33 26  1  0  0  0  0
 35 33  1  0  0  0  0
M  END
