24

O          1.25100        0.18200        0.35600
C          0.30300        0.87900       -0.30100
O         -0.51400        0.32000       -1.01700
C          0.31100        2.36400       -0.07600
H          1.81400        0.67700        0.97400
C         -0.90400        2.95600        0.08000
C         -0.97300        4.30100        0.20700
C          0.13500        5.06400        0.19900
C          1.34600        4.47000        0.07800
C          1.45900        3.11700       -0.08300
C         -0.01800        6.48400        0.28300
H         -1.94800        4.78000        0.30700
C         -2.15000        2.24500        0.12400
C          2.82500        2.49900       -0.33000
Cl         2.78300        5.48000        0.13000
H          3.26500        2.15400        0.61200
H          3.53900        3.19000       -0.78800
H          2.77300        1.66300       -1.03600
N         -3.20400        1.75700        0.20300
C         -0.11500        7.68400        0.27100
C         -0.19600        9.11600        0.19300
O         -1.45100        9.58600        0.12100
O          0.78200        9.84100        0.17500
H         -1.32900       10.55700        0.05000
