
 OpenBabel11042013083D

 41 43  0  0  1  0  0  0  0  0999 V2000
    0.5830   -0.9560    0.3850 O   0  0  0  0  0  0  0  0  0  0  0  0
   -0.5920   -0.3220    0.1820 C   0  0  0  0  0  0  0  0  0  0  0  0
   -1.6310   -0.9480    0.0240 O   0  0  0  0  0  0  0  0  0  0  0  0
   -0.5140    1.1730    0.1330 C   0  0  2  0  0  0  0  0  0  0  0  0
    1.3250   -0.3320    0.5240 H   0  0  0  0  0  0  0  0  0  0  0  0
   -1.6760    1.8150   -0.0930 C   0  0  0  0  0  0  0  0  0  0  0  0
   -1.7090    3.1520   -0.2470 C   0  0  0  0  0  0  0  0  0  0  0  0
   -0.6030    3.9290   -0.1340 C   0  0  2  0  0  0  0  0  0  0  0  0
    0.5330    3.2520    0.1830 C   0  0  0  0  0  0  0  0  0  0  0  0
    0.6150    1.9050    0.2590 C   0  0  2  0  0  0  0  0  0  0  0  0
   -0.5750    5.4370   -0.2810 C   0  0  1  0  0  0  0  0  0  0  0  0
   -2.6940    3.5360   -0.4660 H   0  0  0  0  0  0  0  0  0  0  0  0
   -2.6100    1.2600   -0.1850 H   0  0  0  0  0  0  0  0  0  0  0  0
    2.8350    1.7800   -0.4980 C   0  0  0  0  0  0  0  0  0  0  0  0
    1.4550    3.7830    0.3830 H   0  0  0  0  0  0  0  0  0  0  0  0
   -1.6690    6.2580   -0.3100 C   0  0  2  0  0  0  0  0  0  0  0  0
   -1.5200    7.5960   -0.2130 C   0  0  0  0  0  0  0  0  0  0  0  0
   -0.3170    8.1850   -0.0600 C   0  0  2  0  0  0  0  0  0  0  0  0
    0.7710    7.4110   -0.2270 C   0  0  0  0  0  0  0  0  0  0  0  0
    0.6330    6.0770   -0.3480 C   0  0  0  0  0  0  0  0  0  0  0  0
   -0.2550    9.6140    0.4290 C   0  0  1  0  0  0  0  0  0  0  0  0
   -2.4210    8.2090   -0.1690 H   0  0  0  0  0  0  0  0  0  0  0  0
   -3.0340    5.8360   -0.3490 C   0  0  0  0  0  0  0  0  0  0  0  0
    1.5710    5.5370   -0.4320 H   0  0  0  0  0  0  0  0  0  0  0  0
    1.7760    7.8270   -0.1820 H   0  0  0  0  0  0  0  0  0  0  0  0
   -4.1610    5.5550   -0.3930 N   0  0  0  0  0  0  0  0  0  0  0  0
    0.8520   10.5620    0.0560 C   0  0  0  0  0  0  0  0  0  0  0  0
    0.1150   11.8000    0.1260 N   0  0  0  0  0  0  0  0  0  0  0  0
   -1.2290   11.6160    0.0600 N   0  0  0  0  0  0  0  0  0  0  0  0
   -1.4770   10.3880    0.0970 N   0  0  0  0  0  0  0  0  0  0  0  0
    0.6620   13.0440    0.1740 C   0  0  0  0  0  0  0  0  0  0  0  0
    1.2370   10.4410   -0.9600 H   0  0  0  0  0  0  0  0  0  0  0  0
    1.6820   10.5570    0.7700 H   0  0  0  0  0  0  0  0  0  0  0  0
   -0.2470    9.5210    1.5260 H   0  0  0  0  0  0  0  0  0  0  0  0
    3.5430    0.9760   -0.7100 H   0  0  0  0  0  0  0  0  0  0  0  0
    2.3900    2.0950   -1.4510 H   0  0  0  0  0  0  0  0  0  0  0  0
    3.3780    2.6140   -0.0410 H   0  0  0  0  0  0  0  0  0  0  0  0
    1.8490    1.2780    0.4180 O   0  0  0  0  0  0  0  0  0  0  0  0
   -0.2540   14.0380    0.2220 O   0  0  0  0  0  0  0  0  0  0  0  0
    1.8560   13.3140    0.1540 O   0  0  0  0  0  0  0  0  0  0  0  0
    0.2770   14.8570    0.2490 H   0  0  0  0  0  0  0  0  0  0  0  0
  1  5  1  0  0  0  0
  2  1  1  0  0  0  0
  3  2  2  0  0  0  0
  4  2  1  6  0  0  0
  4 10  5  0  0  0  0
  6  4  5  0  0  0  0
  6  7  5  0  0  0  0
  6 13  1  0  0  0  0
  7 12  1  0  0  0  0
  8  7  5  1  0  0  0
  8 11  1  0  0  0  0
  9  8  5  0  0  0  0
  9 15  1  0  0  0  0
 10  9  5  0  0  0  0
 10 38  1  6  0  0  0
 11 20  5  1  0  0  0
 14 35  1  0  0  0  0
 14 36  1  0  0  0  0
 14 37  1  0  0  0  0
 14 38  1  0  0  0  0
 16 11  5  0  0  0  0
 16 17  5  0  0  0  0
 16 23  1  1  0  0  0
 17 22  1  0  0  0  0
 18 17  5  1  0  0  0
 18 21  1  0  0  0  0
 19 18  5  0  0  0  0
 19 25  1  0  0  0  0
 20 19  5  0  0  0  0
 20 24  1  0  0  0  0
 21 30  1  0  0  0  0
 21 34  1  1  0  0  0
 23 26  3  0  0  0  0
 27 21  1  0  0  0  0
 27 32  1  0  0  0  0
 27 33  1  0  0  0  0
 28 27  1  0  0  0  0
 29 28  1  0  0  0  0
 30 29  2  0  0  0  0
 31 28  1  0  0  0  0
 31 40  2  0  0  0  0
 39 31  1  0  0  0  0
 41 39  1  0  0  0  0
M  END
