
 OpenBabel11042013083D

 39 40  0  0  1  0  0  0  0  0999 V2000
    1.5700   -0.4470    0.0730 O   0  0  0  0  0  0  0  0  0  0  0  0
    0.4130    0.2330    0.2990 C   0  0  0  0  0  0  0  0  0  0  0  0
   -0.5870   -0.3800    0.6400 O   0  0  0  0  0  0  0  0  0  0  0  0
    0.4840    1.7160    0.0930 C   0  0  1  0  0  0  0  0  0  0  0  0
    2.2810    0.0460   -0.3660 H   0  0  0  0  0  0  0  0  0  0  0  0
   -0.6470    2.4640   -0.0960 C   0  0  2  0  0  0  0  0  0  0  0  0
   -0.4930    3.7990   -0.2680 C   0  0  0  0  0  0  0  0  0  0  0  0
    0.7060    4.4230   -0.2480 C   0  0  2  0  0  0  0  0  0  0  0  0
    1.7980    3.6580   -0.0610 C   0  0  0  0  0  0  0  0  0  0  0  0
    1.6940    2.3330    0.1150 C   0  0  0  0  0  0  0  0  0  0  0  0
    0.8670    5.7820   -0.3240 N   0  0  0  0  0  0  0  0  0  0  0  0
   -1.3690    4.4240   -0.4120 H   0  0  0  0  0  0  0  0  0  0  0  0
   -2.0680    1.8780   -0.0920 C   0  0  0  0  0  0  0  0  0  0  0  0
    2.6200    1.8110    0.3110 H   0  0  0  0  0  0  0  0  0  0  0  0
    2.7740    4.1390   -0.0280 H   0  0  0  0  0  0  0  0  0  0  0  0
   -0.1750    6.4460   -0.1950 N   0  0  0  0  0  0  0  0  0  0  0  0
    0.0810    7.8060    0.2380 C   0  0  1  0  0  0  0  0  0  0  0  0
   -3.2590    2.8460   -0.1460 C   0  0  0  0  0  0  0  0  0  0  0  0
   -3.2280    3.4950   -1.0280 H   0  0  0  0  0  0  0  0  0  0  0  0
   -3.2960    3.4770    0.7520 H   0  0  0  0  0  0  0  0  0  0  0  0
   -4.2000    2.2880   -0.1920 H   0  0  0  0  0  0  0  0  0  0  0  0
   -2.1650    1.1940   -0.9440 H   0  0  0  0  0  0  0  0  0  0  0  0
   -2.2110    1.3040    0.8310 H   0  0  0  0  0  0  0  0  0  0  0  0
    0.9070    8.6720   -0.5680 O   0  0  0  0  0  0  0  0  0  0  0  0
   -0.9080    9.9670    0.1060 C   0  0  0  0  0  0  0  0  0  0  0  0
   -1.2640    8.5190    0.3190 C   0  0  0  0  0  0  0  0  0  0  0  0
    1.0770   11.1050   -0.7320 C   0  0  0  0  0  0  0  0  0  0  0  0
   -1.7700    8.3400    1.2730 H   0  0  0  0  0  0  0  0  0  0  0  0
   -1.2490   10.6230    0.9120 H   0  0  0  0  0  0  0  0  0  0  0  0
   -1.3770   10.3180   -0.8240 H   0  0  0  0  0  0  0  0  0  0  0  0
   -1.9400    8.1840   -0.4780 H   0  0  0  0  0  0  0  0  0  0  0  0
    1.0650    9.9750    0.9960 H   0  0  0  0  0  0  0  0  0  0  0  0
    0.6100    9.9440   -0.0040 C   0  0  2  0  0  0  0  0  0  0  0  0
    0.5280    7.7750    1.2450 H   0  0  0  0  0  0  0  0  0  0  0  0
    1.1250   12.2930   -0.8690 C   0  0  0  0  0  0  0  0  0  0  0  0
    0.8260   13.6530   -0.5590 C   0  0  0  0  0  0  0  0  0  0  0  0
   -0.4820   13.8320   -0.2850 O   0  0  0  0  0  0  0  0  0  0  0  0
    1.6640   14.5210   -0.3850 O   0  0  0  0  0  0  0  0  0  0  0  0
   -0.5330   14.7380    0.0760 H   0  0  0  0  0  0  0  0  0  0  0  0
  1  5  1  0  0  0  0
  2  1  1  0  0  0  0
  3  2  2  0  0  0  0
  4  2  1  1  0  0  0
  4 10  5  0  0  0  0
  6  4  5  0  0  0  0
  6  7  5  0  0  0  0
  6 13  1  1  0  0  0
  7 12  1  0  0  0  0
  8  7  5  0  0  0  0
  8 11  1  1  0  0  0
  9  8  5  0  0  0  0
  9 15  1  0  0  0  0
 10  9  5  0  0  0  0
 10 14  1  0  0  0  0
 13 22  1  0  0  0  0
 13 23  1  0  0  0  0
 16 11  2  0  0  0  0
 17 16  1  0  0  0  0
 17 26  1  0  0  0  0
 17 34  1  1  0  0  0
 18 19  1  0  0  0  0
 18 20  1  0  0  0  0
 18 21  1  0  0  0  0
 18 13  1  0  0  0  0
 24 17  1  0  0  0  0
 25 33  1  0  0  0  0
 25 30  1  0  0  0  0
 26 25  1  0  0  0  0
 26 31  1  0  0  0  0
 27 33  1  0  0  0  0
 28 26  1  0  0  0  0
 29 25  1  0  0  0  0
 33 24  1  0  0  0  0
 33 32  1  1  0  0  0
 35 27  3  0  0  0  0
 36 35  1  0  0  0  0
 36 38  2  0  0  0  0
 37 36  1  0  0  0  0
 39 37  1  0  0  0  0
M  END
