41

O          0.99400        1.14200        0.00500
C         -0.09000        1.94600       -0.03700
O         -1.21300        1.47200       -0.14900
C          0.17400        3.42400        0.06000
H          1.85000        1.56500        0.17000
C         -0.91500        4.22100        0.14800
C         -0.79000        5.56400        0.21700
C          0.43000        6.14400        0.20200
C          1.51700        5.34800        0.11700
C          1.39600        4.00500        0.04400
C          0.57500        7.57400        0.21300
H         -1.69100        6.17200        0.26800
H         -1.91600        3.78700        0.15100
H          2.31400        3.43800       -0.04400
H          2.50900        5.79200        0.09000
C          0.63800        8.77000        0.06600
C          0.52400       10.16100       -0.40000
C          1.52200       11.21900        0.06500
C          0.82000       12.52400       -0.38500
N         -0.62300       12.14600       -0.40300
N         -0.71200       10.78600        0.06800
C          1.04800       13.80800        0.44800
H         -1.51800       10.29700       -0.32800
H         -1.15900       12.80000        0.18300
H          2.50000       11.09600       -0.41100
H          1.09500       12.72400       -1.42900
H          1.66400       11.19200        1.15400
H          0.52000       10.13000       -1.49900
C          2.22300       14.70800        0.08500
N          1.58700       15.99100        0.27400
N          0.24400       15.92600        0.12000
N         -0.10300       14.72500        0.20500
C          2.21600       17.28500        0.06800
H          3.07300       14.57100        0.76000
H          2.55500       14.58000       -0.95100
H          1.05700       13.57600        1.52000
C          2.56200       18.43000       -0.01700
C          2.83400       19.84200       -0.04700
O          1.73000       20.61400       -0.04000
O          3.95800       20.31500       -0.05400
H          2.07000       21.53100       -0.03500
