
 OpenBabel11042013083D

 41 43  0  0  1  0  0  0  0  0999 V2000
    0.9940    1.1420    0.0050 O   0  0  0  0  0  0  0  0  0  0  0  0
   -0.0900    1.9460   -0.0370 C   0  0  0  0  0  0  0  0  0  0  0  0
   -1.2130    1.4720   -0.1490 O   0  0  0  0  0  0  0  0  0  0  0  0
    0.1740    3.4240    0.0600 C   0  0  2  0  0  0  0  0  0  0  0  0
    1.8500    1.5650    0.1700 H   0  0  0  0  0  0  0  0  0  0  0  0
   -0.9150    4.2210    0.1480 C   0  0  0  0  0  0  0  0  0  0  0  0
   -0.7900    5.5640    0.2170 C   0  0  0  0  0  0  0  0  0  0  0  0
    0.4300    6.1440    0.2020 C   0  0  1  0  0  0  0  0  0  0  0  0
    1.5170    5.3480    0.1170 C   0  0  0  0  0  0  0  0  0  0  0  0
    1.3960    4.0050    0.0440 C   0  0  0  0  0  0  0  0  0  0  0  0
    0.5750    7.5740    0.2130 C   0  0  0  0  0  0  0  0  0  0  0  0
   -1.6910    6.1720    0.2680 H   0  0  0  0  0  0  0  0  0  0  0  0
   -1.9160    3.7870    0.1510 H   0  0  0  0  0  0  0  0  0  0  0  0
    2.3140    3.4380   -0.0440 H   0  0  0  0  0  0  0  0  0  0  0  0
    2.5090    5.7920    0.0900 H   0  0  0  0  0  0  0  0  0  0  0  0
    0.6380    8.7700    0.0660 C   0  0  0  0  0  0  0  0  0  0  0  0
    0.5240   10.1610   -0.4000 C   0  0  2  0  0  0  0  0  0  0  0  0
    1.5220   11.2190    0.0650 C   0  0  0  0  0  0  0  0  0  0  0  0
    0.8200   12.5240   -0.3850 C   0  0  1  0  0  0  0  0  0  0  0  0
   -0.6230   12.1460   -0.4030 N   0  0  0  0  0  0  0  0  0  0  0  0
   -0.7120   10.7860    0.0680 N   0  0  0  0  0  0  0  0  0  0  0  0
    1.0480   13.8080    0.4480 C   0  0  1  0  0  0  0  0  0  0  0  0
   -1.5180   10.2970   -0.3280 H   0  0  0  0  0  0  0  0  0  0  0  0
   -1.1590   12.8000    0.1830 H   0  0  0  0  0  0  0  0  0  0  0  0
    2.5000   11.0960   -0.4110 H   0  0  0  0  0  0  0  0  0  0  0  0
    1.0950   12.7240   -1.4290 H   0  0  0  0  0  0  0  0  0  0  0  0
    1.6640   11.1920    1.1540 H   0  0  0  0  0  0  0  0  0  0  0  0
    0.5200   10.1300   -1.4990 H   0  0  0  0  0  0  0  0  0  0  0  0
    2.2230   14.7080    0.0850 C   0  0  0  0  0  0  0  0  0  0  0  0
    1.5870   15.9910    0.2740 N   0  0  0  0  0  0  0  0  0  0  0  0
    0.2440   15.9260    0.1200 N   0  0  0  0  0  0  0  0  0  0  0  0
   -0.1030   14.7250    0.2050 N   0  0  0  0  0  0  0  0  0  0  0  0
    2.2160   17.2850    0.0680 C   0  0  0  0  0  0  0  0  0  0  0  0
    3.0730   14.5710    0.7600 H   0  0  0  0  0  0  0  0  0  0  0  0
    2.5550   14.5800   -0.9510 H   0  0  0  0  0  0  0  0  0  0  0  0
    1.0570   13.5760    1.5200 H   0  0  0  0  0  0  0  0  0  0  0  0
    2.5620   18.4300   -0.0170 C   0  0  0  0  0  0  0  0  0  0  0  0
    2.8340   19.8420   -0.0470 C   0  0  0  0  0  0  0  0  0  0  0  0
    1.7300   20.6140   -0.0400 O   0  0  0  0  0  0  0  0  0  0  0  0
    3.9580   20.3150   -0.0540 O   0  0  0  0  0  0  0  0  0  0  0  0
    2.0700   21.5310   -0.0350 H   0  0  0  0  0  0  0  0  0  0  0  0
  1  5  1  0  0  0  0
  2  1  1  0  0  0  0
  3  2  2  0  0  0  0
  4  2  1  6  0  0  0
  4 10  5  0  0  0  0
  6  4  5  0  0  0  0
  6  7  5  0  0  0  0
  6 13  1  0  0  0  0
  7 12  1  0  0  0  0
  8  7  5  0  0  0  0
  8 11  1  6  0  0  0
  9  8  5  0  0  0  0
  9 15  1  0  0  0  0
 10  9  5  0  0  0  0
 10 14  1  0  0  0  0
 16 11  3  0  0  0  0
 17 16  1  0  0  0  0
 17 21  1  0  0  0  0
 17 28  1  6  0  0  0
 18 17  1  0  0  0  0
 18 25  1  0  0  0  0
 18 27  1  0  0  0  0
 19 18  1  0  0  0  0
 19 26  1  6  0  0  0
 20 19  1  0  0  0  0
 21 20  1  0  0  0  0
 22 19  1  0  0  0  0
 22 32  1  0  0  0  0
 22 36  1  1  0  0  0
 23 21  1  0  0  0  0
 24 20  1  0  0  0  0
 29 22  1  0  0  0  0
 29 34  1  0  0  0  0
 29 35  1  0  0  0  0
 30 29  1  0  0  0  0
 31 30  1  0  0  0  0
 32 31  2  0  0  0  0
 33 30  1  0  0  0  0
 37 33  3  0  0  0  0
 38 37  1  0  0  0  0
 38 40  2  0  0  0  0
 39 38  1  0  0  0  0
 41 39  1  0  0  0  0
M  END
