61

O          1.75200        2.37800        0.06700
C          0.65000        3.08200       -0.26900
O         -0.34700        2.54300       -0.73400
C          0.74800        4.54600        0.00900
H          2.40600        2.89500        0.57700
C         -0.39300        5.14500        0.39100
C         -0.41800        6.47500        0.58300
C          0.67400        7.26200        0.37900
C          1.82600        6.63900        0.04000
C          1.86600        5.29600       -0.14700
C          0.42900        8.78400        0.45300
H         -1.37400        6.91800        0.85900
H         -1.31100        4.57000        0.51400
H          2.79400        4.83600       -0.47300
H          2.72400        7.22700       -0.13400
O          1.51700        9.76100        0.36000
C         -0.43900       10.59400       -0.69700
C         -0.48300        9.11300       -0.71900
C          1.09700       12.37800        0.26000
H         -1.50400        8.73600       -0.60400
H         -0.81700       11.04000       -1.62000
H         -1.08200       10.91200        0.13600
H         -0.07700        8.74100       -1.66800
H          1.60800       10.93600       -1.34600
C          1.03800       10.93300       -0.41000
H         -0.05900        9.00100        1.41300
C          2.32000       13.35200        0.09900
C          1.74000       14.74200       -0.33700
N          0.30200       14.51400       -0.08400
N          0.02400       13.18400       -0.36600
C          2.05100       16.10400        0.40300
H         -0.88100       12.92100        0.03300
H         -0.22400       15.19500       -0.64500
H          2.86100       13.43900        1.04900
H          1.90300       14.87200       -1.41500
H          3.01400       12.98100       -0.66300
H          0.90400       12.26300        1.33600
C          3.09000       17.13100       -0.10600
C          2.58600       18.43900        0.56700
N          1.12900       18.31700        0.36400
N          0.81000       16.93600        0.33000
C          3.07200       19.87200        0.24900
H          0.17200       16.63900        1.07500
H          0.91200       18.73100       -0.55100
H          4.10300       16.87700        0.22100
H          2.76500       18.32800        1.64700
H          3.08000       17.21800       -1.20000
H          2.25300       15.89400        1.46200
C          2.19500       20.91500        0.30200
C          2.57100       22.19300        0.11600
C          3.86100       22.47900       -0.12700
C          4.75300       21.46900       -0.20300
C          4.36300       20.18400       -0.02500
C          4.32600       23.89100       -0.28000
H          1.81900       22.97600        0.18900
H          1.14400       20.74900        0.53500
H          5.11600       19.40100       -0.06900
H          5.80200       21.68800       -0.39000
O          3.33600       24.79900       -0.17000
O          5.47800       24.25300       -0.45900
H          3.79100       25.66200       -0.25900
