38

O          1.61700       -0.26000       -0.08000
C          0.45800        0.42700        0.00500
O         -0.60700       -0.14800        0.18000
C          0.57500        1.91400       -0.10700
H          2.40200        0.25100       -0.33500
C         -0.56400        2.59400       -0.35900
C         -0.59200        3.94500       -0.37700
C          0.56100        4.65000       -0.18300
C          1.72200        3.95100       -0.00600
C          1.71400        2.60700        0.05300
C          0.58900        6.10300        0.04600
C         -2.74300        4.47500        0.42700
H         -1.49000        2.04700       -0.51900
H          2.66400        2.12200        0.26200
O          2.95700        4.57100        0.13600
H         -2.91500        3.43800        0.73200
H         -2.41900        5.07600        1.28200
H         -3.69400        4.87800        0.06500
O         -1.79900        4.58300       -0.63600
C         -0.23600        7.07400       -0.38600
C         -0.22600        8.42900        0.26100
H         -1.02500        6.85900       -1.09900
H          1.34500        6.41000        0.77200
O          0.71200        9.32200       -0.34800
C         -1.14800       10.63300        0.21200
C         -1.55300        9.17100        0.21400
C          0.99200       11.82400       -0.51600
H         -2.19100        8.91600        1.06700
H         -1.52100       11.17000        1.09100
H         -1.56500       11.13200       -0.67100
H         -2.11900        8.94800       -0.69800
H          0.76300       10.64100        1.21300
C          0.37700       10.61200        0.18400
H          0.07200        8.31900        1.31400
H          2.97900        5.43500       -0.31400
O          0.32000       12.97000       -0.26200
O          2.02300       11.85900       -1.16600
H          0.84200       13.65800       -0.72800
