
 OpenBabel11042013083D

 38 39  0  0  1  0  0  0  0  0999 V2000
    1.6170   -0.2600   -0.0800 O   0  0  0  0  0  0  0  0  0  0  0  0
    0.4580    0.4270    0.0050 C   0  0  0  0  0  0  0  0  0  0  0  0
   -0.6070   -0.1480    0.1800 O   0  0  0  0  0  0  0  0  0  0  0  0
    0.5750    1.9140   -0.1070 C   0  0  1  0  0  0  0  0  0  0  0  0
    2.4020    0.2510   -0.3350 H   0  0  0  0  0  0  0  0  0  0  0  0
   -0.5640    2.5940   -0.3590 C   0  0  0  0  0  0  0  0  0  0  0  0
   -0.5920    3.9450   -0.3770 C   0  0  1  0  0  0  0  0  0  0  0  0
    0.5610    4.6500   -0.1830 C   0  0  2  0  0  0  0  0  0  0  0  0
    1.7220    3.9510   -0.0060 C   0  0  2  0  0  0  0  0  0  0  0  0
    1.7140    2.6070    0.0530 C   0  0  0  0  0  0  0  0  0  0  0  0
    0.5890    6.1030    0.0460 C   0  0  0  0  0  0  0  0  0  0  0  0
   -2.7430    4.4750    0.4270 C   0  0  0  0  0  0  0  0  0  0  0  0
   -1.4900    2.0470   -0.5190 H   0  0  0  0  0  0  0  0  0  0  0  0
    2.6640    2.1220    0.2620 H   0  0  0  0  0  0  0  0  0  0  0  0
    2.9570    4.5710    0.1360 O   0  0  0  0  0  0  0  0  0  0  0  0
   -2.9150    3.4380    0.7320 H   0  0  0  0  0  0  0  0  0  0  0  0
   -2.4190    5.0760    1.2820 H   0  0  0  0  0  0  0  0  0  0  0  0
   -3.6940    4.8780    0.0650 H   0  0  0  0  0  0  0  0  0  0  0  0
   -1.7990    4.5830   -0.6360 O   0  0  0  0  0  0  0  0  0  0  0  0
   -0.2360    7.0740   -0.3860 C   0  0  0  0  0  0  0  0  0  0  0  0
   -0.2260    8.4290    0.2610 C   0  0  1  0  0  0  0  0  0  0  0  0
   -1.0250    6.8590   -1.0990 H   0  0  0  0  0  0  0  0  0  0  0  0
    1.3450    6.4100    0.7720 H   0  0  0  0  0  0  0  0  0  0  0  0
    0.7120    9.3220   -0.3480 O   0  0  0  0  0  0  0  0  0  0  0  0
   -1.1480   10.6330    0.2120 C   0  0  0  0  0  0  0  0  0  0  0  0
   -1.5530    9.1710    0.2140 C   0  0  0  0  0  0  0  0  0  0  0  0
    0.9920   11.8240   -0.5160 C   0  0  0  0  0  0  0  0  0  0  0  0
   -2.1910    8.9160    1.0670 H   0  0  0  0  0  0  0  0  0  0  0  0
   -1.5210   11.1700    1.0910 H   0  0  0  0  0  0  0  0  0  0  0  0
   -1.5650   11.1320   -0.6710 H   0  0  0  0  0  0  0  0  0  0  0  0
   -2.1190    8.9480   -0.6980 H   0  0  0  0  0  0  0  0  0  0  0  0
    0.7630   10.6410    1.2130 H   0  0  0  0  0  0  0  0  0  0  0  0
    0.3770   10.6120    0.1840 C   0  0  2  0  0  0  0  0  0  0  0  0
    0.0720    8.3190    1.3140 H   0  0  0  0  0  0  0  0  0  0  0  0
    2.9790    5.4350   -0.3140 H   0  0  0  0  0  0  0  0  0  0  0  0
    0.3200   12.9700   -0.2620 O   0  0  0  0  0  0  0  0  0  0  0  0
    2.0230   11.8590   -1.1660 O   0  0  0  0  0  0  0  0  0  0  0  0
    0.8420   13.6580   -0.7280 H   0  0  0  0  0  0  0  0  0  0  0  0
  1  5  1  0  0  0  0
  2  1  1  0  0  0  0
  3  2  2  0  0  0  0
  4  2  1  1  0  0  0
  4 10  5  0  0  0  0
  6  4  5  0  0  0  0
  6  7  5  0  0  0  0
  6 13  1  0  0  0  0
  7 19  1  6  0  0  0
  8  7  5  0  0  0  0
  8 11  1  1  0  0  0
  9  8  5  0  0  0  0
  9 15  1  1  0  0  0
 10  9  5  0  0  0  0
 10 14  1  0  0  0  0
 11 23  1  0  0  0  0
 12 16  1  0  0  0  0
 12 17  1  0  0  0  0
 12 18  1  0  0  0  0
 12 19  1  0  0  0  0
 15 35  1  0  0  0  0
 20 11  2  0  0  0  0
 20 22  1  0  0  0  0
 21 20  1  0  0  0  0
 21 26  1  0  0  0  0
 21 34  1  1  0  0  0
 24 21  1  0  0  0  0
 25 33  1  0  0  0  0
 25 30  1  0  0  0  0
 26 25  1  0  0  0  0
 26 31  1  0  0  0  0
 27 33  1  0  0  0  0
 27 37  2  0  0  0  0
 28 26  1  0  0  0  0
 29 25  1  0  0  0  0
 33 24  1  0  0  0  0
 33 32  1  1  0  0  0
 36 27  1  0  0  0  0
 38 36  1  0  0  0  0
M  END
