41

O          1.16500        0.06800        0.21500
C         -0.04900        0.66400        0.08400
O         -1.04000       -0.02700       -0.11900
C         -0.01700        2.18100        0.08600
H          1.90000        0.71300        0.33600
C         -1.09200        2.93500       -0.30100
C         -0.92200        4.26800       -0.45500
C          0.28400        4.87000       -0.23300
C          1.30000        4.12900        0.21500
C          1.10900        2.82600        0.46800
C          0.51600        6.29400       -0.40400
H         -1.75000        4.89700       -0.75500
C         -2.48800        2.31000       -0.42800
N          2.06800        2.20000        1.33400
H          2.25200        4.59900        0.43600
C         -0.29100        7.25200        0.07400
C         -0.15000        8.67800       -0.33800
H         -1.18900        6.97000        0.61800
H          1.43300        6.58200       -0.91900
C         -3.68100        3.23200       -0.17600
H         -3.81400        3.94800       -0.99200
H         -3.56700        3.77900        0.76500
H         -4.59500        2.63400       -0.10300
H         -2.59900        1.81300       -1.39700
H         -2.58900        1.55000        0.35700
O          0.71000        9.50700        0.46400
C         -1.07000       10.85100       -0.22100
C         -1.48100        9.40000       -0.28600
C          1.01300       12.12600        0.51100
H         -2.11300        9.16300       -1.14600
H         -1.36300       11.40000       -1.12200
H         -1.56100       11.33400        0.62300
H         -2.04100        9.14600        0.62400
H          0.89400       10.81000       -1.08300
C          0.45100       10.81800       -0.07200
H          0.24900        8.70000       -1.36100
H          1.55500        1.63200        2.02400
H          2.51900        2.92600        1.90000
O          0.13400       13.15500        0.43300
O          2.15900       12.33800        0.87100
H          0.64200       13.95200        0.69100
