
 OpenBabel11042013083D

 51 54  0  0  1  0  0  0  0  0999 V2000
    1.1010    0.9270   -0.3080 O   0  0  0  0  0  0  0  0  0  0  0  0
    0.0310    1.6310    0.1260 C   0  0  0  0  0  0  0  0  0  0  0  0
   -0.9200    1.0470    0.6250 O   0  0  0  0  0  0  0  0  0  0  0  0
    0.1480    3.1320    0.0010 C   0  0  1  0  0  0  0  0  0  0  0  0
    1.7980    1.4280   -0.7620 H   0  0  0  0  0  0  0  0  0  0  0  0
   -0.9670    3.9000   -0.0880 C   0  0  2  0  0  0  0  0  0  0  0  0
   -0.8440    5.2540   -0.0510 C   0  0  0  0  0  0  0  0  0  0  0  0
    0.3410    5.9130    0.0690 C   0  0  2  0  0  0  0  0  0  0  0  0
    1.4350    5.1240    0.0790 C   0  0  0  0  0  0  0  0  0  0  0  0
    1.3500    3.7700    0.0540 C   0  0  0  0  0  0  0  0  0  0  0  0
    0.3770    7.4610    0.3250 C   0  0  1  0  0  0  0  0  0  0  0  0
   -1.7820    5.8020   -0.0700 H   0  0  0  0  0  0  0  0  0  0  0  0
   -2.5830    3.2720   -0.2050 Cl  0  0  0  0  0  0  0  0  0  0  0  0
    2.2710    3.2040    0.1350 H   0  0  0  0  0  0  0  0  0  0  0  0
    2.4230    5.5730    0.1660 H   0  0  0  0  0  0  0  0  0  0  0  0
    1.4000    8.5530   -0.1670 C   0  0  0  0  0  0  0  0  0  0  0  0
    0.7160    9.8910    0.3030 C   0  0  2  0  0  0  0  0  0  0  0  0
   -0.7340    9.4930    0.2060 N   0  0  0  0  0  0  0  0  0  0  0  0
   -0.8460    8.1150   -0.1390 N   0  0  0  0  0  0  0  0  0  0  0  0
    0.8600   11.3930   -0.3250 C   0  0  2  0  0  0  0  0  0  0  0  0
   -1.6640    7.7180    0.3250 H   0  0  0  0  0  0  0  0  0  0  0  0
   -1.1910   10.0190   -0.5410 H   0  0  0  0  0  0  0  0  0  0  0  0
    2.3730    8.4090    0.3140 H   0  0  0  0  0  0  0  0  0  0  0  0
    0.9600    9.9930    1.3700 H   0  0  0  0  0  0  0  0  0  0  0  0
    1.5250    8.5180   -1.2550 H   0  0  0  0  0  0  0  0  0  0  0  0
    0.3820    7.5140    1.4270 H   0  0  0  0  0  0  0  0  0  0  0  0
    1.9430   12.3650    0.0230 O   0  0  0  0  0  0  0  0  0  0  0  0
   -0.0900   13.5700   -0.0010 C   0  0  0  0  0  0  0  0  0  0  0  0
   -0.3970   12.1370    0.1370 C   0  0  0  0  0  0  0  0  0  0  0  0
    1.8680   15.1030   -0.2610 C   0  0  2  0  0  0  0  0  0  0  0  0
   -1.2850   11.9090   -0.4580 H   0  0  0  0  0  0  0  0  0  0  0  0
   -0.7630   14.1670    0.6200 H   0  0  0  0  0  0  0  0  0  0  0  0
   -0.2370   13.8380   -1.0530 H   0  0  0  0  0  0  0  0  0  0  0  0
   -0.6090   11.9270    1.1930 H   0  0  0  0  0  0  0  0  0  0  0  0
    1.4970   13.7740    1.4790 H   0  0  0  0  0  0  0  0  0  0  0  0
    1.3670   13.7070    0.3920 C   0  0  2  0  0  0  0  0  0  0  0  0
    0.8870   11.3090   -1.4180 H   0  0  0  0  0  0  0  0  0  0  0  0
    2.8740   15.9090    0.4360 O   0  0  0  0  0  0  0  0  0  0  0  0
    1.3040   17.4970   -0.3190 C   0  0  0  0  0  0  0  0  0  0  0  0
    0.7060   16.1250   -0.3190 C   0  0  0  0  0  0  0  0  0  0  0  0
    3.4130   18.5180    0.5270 C   0  0  0  0  0  0  0  0  0  0  0  0
    0.0520   15.9810   -1.1820 H   0  0  0  0  0  0  0  0  0  0  0  0
    1.0920   18.0510   -1.2410 H   0  0  0  0  0  0  0  0  0  0  0  0
    0.8670   18.0840    0.5020 H   0  0  0  0  0  0  0  0  0  0  0  0
    0.0970   16.0650    0.5920 H   0  0  0  0  0  0  0  0  0  0  0  0
    3.2670   17.2010   -1.1120 H   0  0  0  0  0  0  0  0  0  0  0  0
    2.7880   17.2520   -0.1250 C   0  0  1  0  0  0  0  0  0  0  0  0
    2.2690   14.9060   -1.2620 H   0  0  0  0  0  0  0  0  0  0  0  0
    2.8020   19.6680    0.1280 O   0  0  0  0  0  0  0  0  0  0  0  0
    4.3820   18.5820    1.2620 O   0  0  0  0  0  0  0  0  0  0  0  0
    3.2710   20.3980    0.5850 H   0  0  0  0  0  0  0  0  0  0  0  0
  1  5  1  0  0  0  0
  2  1  1  0  0  0  0
  3  2  2  0  0  0  0
  4  2  1  1  0  0  0
  4 10  5  0  0  0  0
  6  4  5  0  0  0  0
  6  7  5  0  0  0  0
  6 13  1  1  0  0  0
  7 12  1  0  0  0  0
  8  7  5  1  0  0  0
  8 11  1  0  0  0  0
  9  8  5  0  0  0  0
  9 15  1  0  0  0  0
 10  9  5  0  0  0  0
 10 14  1  0  0  0  0
 11 19  1  0  0  0  0
 11 26  1  1  0  0  0
 16 11  1  0  0  0  0
 16 23  1  0  0  0  0
 16 25  1  0  0  0  0
 17 16  1  0  0  0  0
 17 24  1  1  0  0  0
 18 17  1  0  0  0  0
 19 18  1  0  0  0  0
 20 17  1  0  0  0  0
 20 29  1  0  0  0  0
 20 37  1  6  0  0  0
 21 19  1  0  0  0  0
 22 18  1  0  0  0  0
 27 20  1  0  0  0  0
 28 36  1  0  0  0  0
 28 33  1  0  0  0  0
 29 28  1  0  0  0  0
 29 34  1  0  0  0  0
 30 36  1  0  0  0  0
 30 40  1  0  0  0  0
 30 48  1  6  0  0  0
 31 29  1  0  0  0  0
 32 28  1  0  0  0  0
 36 27  1  0  0  0  0
 36 35  1  1  0  0  0
 38 30  1  0  0  0  0
 39 47  1  0  0  0  0
 39 44  1  0  0  0  0
 40 39  1  0  0  0  0
 40 45  1  0  0  0  0
 41 47  1  0  0  0  0
 41 50  2  0  0  0  0
 42 40  1  0  0  0  0
 43 39  1  0  0  0  0
 47 38  1  0  0  0  0
 47 46  1  6  0  0  0
 49 41  1  0  0  0  0
 51 49  1  0  0  0  0
M  END
