26

O          1.56200        0.23500       -0.02300
C          0.35900        0.85100        0.00100
O         -0.64700        0.15900        0.01600
C          0.35300        2.37300        0.00500
H          2.38200        0.74500       -0.06600
C         -0.82400        3.08300       -0.02100
C         -0.73900        4.43600        0.00700
C          0.42500        5.13300        0.05000
C          1.56900        4.40600        0.06200
C          1.52100        3.05700        0.04800
N          0.50100        6.52200        0.06400
F         -1.87300        5.16400       -0.00800
C         -2.18900        2.37400       -0.09400
H          2.48200        2.55900        0.07200
Br         3.27200        5.23600        0.09600
N         -0.56200        7.17800        0.10200
C         -0.35300        8.52800        0.06100
C         -3.53700        3.11000       -0.13900
H         -4.01100        2.96300       -1.11500
H         -3.53100        4.17800        0.05200
H         -4.21000        2.68700        0.61500
H         -2.17600        1.74400       -0.99500
H         -2.25700        1.70700        0.77500
O         -1.52900        9.20000        0.05400
O          0.69200        9.15800        0.02200
H         -1.23600       10.13200        0.01700
