
 OpenBabel11042013083D

 30 30  0  0  1  0  0  0  0  0999 V2000
    1.3450    0.4950   -0.1370 O   0  0  0  0  0  0  0  0  0  0  0  0
    0.1320    1.0870   -0.0610 C   0  0  0  0  0  0  0  0  0  0  0  0
   -0.8550    0.3680   -0.0700 O   0  0  0  0  0  0  0  0  0  0  0  0
    0.1130    2.6250   -0.0240 C   0  0  2  0  0  0  0  0  0  0  0  0
    2.0790    1.1430   -0.1580 H   0  0  0  0  0  0  0  0  0  0  0  0
   -1.0850    3.3080   -0.0820 C   0  0  2  0  0  0  0  0  0  0  0  0
   -1.0220    4.6690   -0.1340 C   0  0  1  0  0  0  0  0  0  0  0  0
    0.1590    5.3350   -0.0890 C   0  0  1  0  0  0  0  0  0  0  0  0
    1.3350    4.6600   -0.0110 C   0  0  1  0  0  0  0  0  0  0  0  0
    1.2910    3.3030    0.0450 C   0  0  2  0  0  0  0  0  0  0  0  0
    0.1930    6.8310   -0.1840 C   0  0  0  0  0  0  0  0  0  0  0  0
   -2.2110    5.4600   -0.3170 N   0  0  0  0  0  0  0  0  0  0  0  0
   -2.4020    2.4930   -0.0710 C   0  0  0  0  0  0  0  0  0  0  0  0
    2.4870    2.5920    0.1620 O   0  0  0  0  0  0  0  0  0  0  0  0
    2.6610    5.4130   -0.0350 C   0  0  0  0  0  0  0  0  0  0  0  0
   -3.8110    3.0670    0.0870 C   0  0  0  0  0  0  0  0  0  0  0  0
   -4.5290    2.2400    0.1320 H   0  0  0  0  0  0  0  0  0  0  0  0
   -3.9170    3.6320    1.0180 H   0  0  0  0  0  0  0  0  0  0  0  0
   -4.1180    3.6760   -0.7650 H   0  0  0  0  0  0  0  0  0  0  0  0
   -2.3350    1.8140    0.7890 H   0  0  0  0  0  0  0  0  0  0  0  0
   -2.4290    1.9000   -0.9950 H   0  0  0  0  0  0  0  0  0  0  0  0
    3.1500    3.0520    0.7080 H   0  0  0  0  0  0  0  0  0  0  0  0
    2.6750    6.2170    0.7070 H   0  0  0  0  0  0  0  0  0  0  0  0
    3.5370    4.7990    0.1840 H   0  0  0  0  0  0  0  0  0  0  0  0
    2.8360    5.8280   -1.0320 H   0  0  0  0  0  0  0  0  0  0  0  0
   -2.7880    5.4110    0.5230 H   0  0  0  0  0  0  0  0  0  0  0  0
   -2.8070    5.0620   -1.0390 H   0  0  0  0  0  0  0  0  0  0  0  0
   -0.6330    7.4590    0.6740 O   0  0  0  0  0  0  0  0  0  0  0  0
    0.9400    7.4900   -0.8980 O   0  0  0  0  0  0  0  0  0  0  0  0
   -0.5760    8.3940    0.4010 H   0  0  0  0  0  0  0  0  0  0  0  0
  1  5  1  0  0  0  0
  2  1  1  0  0  0  0
  3  2  2  0  0  0  0
  4  2  1  6  0  0  0
  4 10  5  0  0  0  0
  6  4  5  0  0  0  0
  6  7  5  0  0  0  0
  6 13  1  1  0  0  0
  7 12  1  6  0  0  0
  8  7  5  0  0  0  0
  8 11  1  6  0  0  0
  9  8  5  0  0  0  0
  9 15  1  6  0  0  0
 10  9  5  0  0  0  0
 10 14  1  6  0  0  0
 11 29  2  0  0  0  0
 12 26  1  0  0  0  0
 12 27  1  0  0  0  0
 13 20  1  0  0  0  0
 13 21  1  0  0  0  0
 14 22  1  0  0  0  0
 15 23  1  0  0  0  0
 15 24  1  0  0  0  0
 15 25  1  0  0  0  0
 16 17  1  0  0  0  0
 16 18  1  0  0  0  0
 16 19  1  0  0  0  0
 16 13  1  0  0  0  0
 28 11  1  0  0  0  0
 30 28  1  0  0  0  0
M  END
