
 OpenBabel11042013083D

 30 31  0  0  1  0  0  0  0  0999 V2000
    1.2890    0.4610    0.1410 O   0  0  0  0  0  0  0  0  0  0  0  0
    0.1290    1.0410    0.5370 C   0  0  0  0  0  0  0  0  0  0  0  0
   -0.7710    0.3790    1.0250 O   0  0  0  0  0  0  0  0  0  0  0  0
    0.0720    2.5210    0.3200 C   0  0  1  0  0  0  0  0  0  0  0  0
    1.9150    1.0190   -0.3450 H   0  0  0  0  0  0  0  0  0  0  0  0
   -1.0790    3.1470   -0.0140 C   0  0  1  0  0  0  0  0  0  0  0  0
   -1.0920    4.4930   -0.2110 C   0  0  1  0  0  0  0  0  0  0  0  0
    0.0390    5.2360   -0.0890 C   0  0  1  0  0  0  0  0  0  0  0  0
    1.1700    4.5860    0.2630 C   0  0  1  0  0  0  0  0  0  0  0  0
    1.1970    3.2570    0.4700 C   0  0  0  0  0  0  0  0  0  0  0  0
    0.0070    6.7270   -0.4110 C   0  0  2  0  0  0  0  0  0  0  0  0
   -2.2800    5.1280   -0.5860 O   0  0  0  0  0  0  0  0  0  0  0  0
   -2.5880    2.2940   -0.2480 Cl  0  0  0  0  0  0  0  0  0  0  0  0
    2.1420    2.8160    0.7620 H   0  0  0  0  0  0  0  0  0  0  0  0
    2.3370    5.2560    0.3840 F   0  0  0  0  0  0  0  0  0  0  0  0
   -3.0360    4.5090   -0.5710 H   0  0  0  0  0  0  0  0  0  0  0  0
    1.1550    7.6720   -0.0590 C   0  0  0  0  0  0  0  0  0  0  0  0
    0.5530    9.0200   -0.4450 C   0  0  1  0  0  0  0  0  0  0  0  0
   -0.9080    8.8570   -0.2230 N   0  0  0  0  0  0  0  0  0  0  0  0
   -1.0920    7.4850    0.2200 N   0  0  0  0  0  0  0  0  0  0  0  0
    1.1080   10.2220    0.3030 C   0  0  0  0  0  0  0  0  0  0  0  0
   -1.9790    7.0910   -0.1180 H   0  0  0  0  0  0  0  0  0  0  0  0
   -1.2170    9.5370    0.4830 H   0  0  0  0  0  0  0  0  0  0  0  0
    2.0620    7.4650   -0.6350 H   0  0  0  0  0  0  0  0  0  0  0  0
    0.7090    9.2080   -1.5140 H   0  0  0  0  0  0  0  0  0  0  0  0
    1.4080    7.6330    1.0100 H   0  0  0  0  0  0  0  0  0  0  0  0
   -0.1250    6.7700   -1.5050 H   0  0  0  0  0  0  0  0  0  0  0  0
    0.1920   11.2000    0.4950 O   0  0  0  0  0  0  0  0  0  0  0  0
    2.2700   10.3990    0.6340 O   0  0  0  0  0  0  0  0  0  0  0  0
    0.7020   11.9490    0.8680 H   0  0  0  0  0  0  0  0  0  0  0  0
  1  5  1  0  0  0  0
  2  1  1  0  0  0  0
  3  2  2  0  0  0  0
  4  2  1  1  0  0  0
  4 10  5  0  0  0  0
  6  4  5  0  0  0  0
  6  7  5  0  0  0  0
  6 13  1  6  0  0  0
  7 12  1  6  0  0  0
  8  7  5  0  0  0  0
  8 11  1  6  0  0  0
  9  8  5  0  0  0  0
  9 15  1  6  0  0  0
 10  9  5  0  0  0  0
 10 14  1  0  0  0  0
 11 20  1  0  0  0  0
 11 27  1  6  0  0  0
 12 16  1  0  0  0  0
 17 11  1  0  0  0  0
 17 24  1  0  0  0  0
 17 26  1  0  0  0  0
 18 17  1  0  0  0  0
 18 25  1  6  0  0  0
 19 18  1  0  0  0  0
 20 19  1  0  0  0  0
 21 18  1  0  0  0  0
 21 29  2  0  0  0  0
 22 20  1  0  0  0  0
 23 19  1  0  0  0  0
 28 21  1  0  0  0  0
 30 28  1  0  0  0  0
M  END
