28

O          1.21400        0.23200       -0.18000
C          0.02900        0.87100       -0.17800
O         -1.00400        0.22100       -0.23300
C          0.12000        2.36100       -0.11200
H          0.96700       -0.71100       -0.28900
C         -1.05800        3.02200       -0.19400
C         -1.12800        4.37200       -0.12400
C          0.01000        5.11000       -0.00800
C          1.18200        4.42500        0.07000
C          1.25300        3.08300        0.03700
C          0.17000        6.56700        0.08800
N         -2.43400        4.93900       -0.17000
H         -1.97600        2.44800       -0.30500
N          2.54600        2.50800        0.17700
H          2.11800        4.97200        0.16100
C         -0.66000        7.60900       -0.06700
N         -0.17200        8.88000        0.09900
H         -1.70400        7.50700       -0.32800
H          1.19500        6.87300        0.31900
H         -2.55900        5.81500        0.32300
H         -3.20200        4.30500        0.03000
H          3.22700        3.03000        0.71800
H          2.55400        1.51000        0.38600
N         -0.97200        9.81500       -0.09800
C         -0.36200       11.03300        0.07100
O         -1.23500       12.04800       -0.09600
O          0.80800       11.29500        0.34000
H         -0.67000       12.83100        0.04900
