
 OpenBabel11042013083D

 28 28  0  0  1  0  0  0  0  0999 V2000
    1.2140    0.2320   -0.1800 O   0  0  0  0  0  0  0  0  0  0  0  0
    0.0290    0.8710   -0.1780 C   0  0  0  0  0  0  0  0  0  0  0  0
   -1.0040    0.2210   -0.2330 O   0  0  0  0  0  0  0  0  0  0  0  0
    0.1200    2.3610   -0.1120 C   0  0  1  0  0  0  0  0  0  0  0  0
    0.9670   -0.7110   -0.2890 H   0  0  0  0  0  0  0  0  0  0  0  0
   -1.0580    3.0220   -0.1940 C   0  0  0  0  0  0  0  0  0  0  0  0
   -1.1280    4.3720   -0.1240 C   0  0  2  0  0  0  0  0  0  0  0  0
    0.0100    5.1100   -0.0080 C   0  0  2  0  0  0  0  0  0  0  0  0
    1.1820    4.4250    0.0700 C   0  0  0  0  0  0  0  0  0  0  0  0
    1.2530    3.0830    0.0370 C   0  0  1  0  0  0  0  0  0  0  0  0
    0.1700    6.5670    0.0880 C   0  0  0  0  0  0  0  0  0  0  0  0
   -2.4340    4.9390   -0.1700 N   0  0  0  0  0  0  0  0  0  0  0  0
   -1.9760    2.4480   -0.3050 H   0  0  0  0  0  0  0  0  0  0  0  0
    2.5460    2.5080    0.1770 N   0  0  0  0  0  0  0  0  0  0  0  0
    2.1180    4.9720    0.1610 H   0  0  0  0  0  0  0  0  0  0  0  0
   -0.6600    7.6090   -0.0670 C   0  0  0  0  0  0  0  0  0  0  0  0
   -0.1720    8.8800    0.0990 N   0  0  0  0  0  0  0  0  0  0  0  0
   -1.7040    7.5070   -0.3280 H   0  0  0  0  0  0  0  0  0  0  0  0
    1.1950    6.8730    0.3190 H   0  0  0  0  0  0  0  0  0  0  0  0
   -2.5590    5.8150    0.3230 H   0  0  0  0  0  0  0  0  0  0  0  0
   -3.2020    4.3050    0.0300 H   0  0  0  0  0  0  0  0  0  0  0  0
    3.2270    3.0300    0.7180 H   0  0  0  0  0  0  0  0  0  0  0  0
    2.5540    1.5100    0.3860 H   0  0  0  0  0  0  0  0  0  0  0  0
   -0.9720    9.8150   -0.0980 N   0  0  0  0  0  0  0  0  0  0  0  0
   -0.3620   11.0330    0.0710 C   0  0  0  0  0  0  0  0  0  0  0  0
   -1.2350   12.0480   -0.0960 O   0  0  0  0  0  0  0  0  0  0  0  0
    0.8080   11.2950    0.3400 O   0  0  0  0  0  0  0  0  0  0  0  0
   -0.6700   12.8310    0.0490 H   0  0  0  0  0  0  0  0  0  0  0  0
  1  5  1  0  0  0  0
  2  1  1  0  0  0  0
  3  2  2  0  0  0  0
  4  2  1  1  0  0  0
  4 10  5  0  0  0  0
  6  4  5  0  0  0  0
  6  7  5  0  0  0  0
  6 13  1  0  0  0  0
  7 12  1  1  0  0  0
  8  7  5  0  0  0  0
  8 11  1  1  0  0  0
  9  8  5  0  0  0  0
  9 15  1  0  0  0  0
 10  9  5  0  0  0  0
 10 14  1  1  0  0  0
 11 19  1  0  0  0  0
 12 20  1  0  0  0  0
 12 21  1  0  0  0  0
 14 22  1  0  0  0  0
 14 23  1  0  0  0  0
 16 11  2  0  0  0  0
 16 18  1  0  0  0  0
 17 16  1  0  0  0  0
 24 17  2  0  0  0  0
 25 24  1  0  0  0  0
 25 27  2  0  0  0  0
 26 25  1  0  0  0  0
 28 26  1  0  0  0  0
M  END
