37

O          0.12900        0.78900        0.83800
C         -0.19200        1.43500       -0.29900
O         -0.74900        0.86900       -1.22200
C          0.06900        2.88700       -0.17600
H         -0.12300       -0.14200        0.66800
C         -1.07500        3.57600       -0.01600
C         -1.03900        4.90300        0.15700
C          0.12900        5.59300        0.20400
C          1.27600        4.86900        0.01000
C          1.27200        3.50800       -0.21300
C          0.03200        7.11000        0.51900
H         -2.00000        5.39300        0.28700
H         -2.04300        3.07200       -0.01300
C          2.57600        2.75000       -0.53400
Cl         2.81900        5.69400        0.08400
C          1.00000        8.15700       -0.03800
C          0.32700        9.44200        0.40900
N         -1.09800        9.18400        0.17800
N         -1.26200        7.73500        0.11800
N          0.85000       10.62100       -0.29200
H         -1.99200        7.45000        0.77500
H         -1.32800        9.60400       -0.72800
H          1.99700        8.12000        0.40700
H          0.49000        9.56600        1.49000
H          1.09500        8.09400       -1.13000
H          0.08600        7.16600        1.61800
C          2.85800        1.36800        0.04600
H          2.28500        0.58700       -0.46100
H          3.91400        1.11500       -0.11500
H          2.67400        1.33200        1.12300
H          2.64500        2.67900       -1.62800
H          3.45100        3.33000       -0.22900
N          0.37800       11.67000        0.20800
C          0.86200       12.81800       -0.35700
O          0.08800       13.87500       -0.02800
O          1.85600       12.98900       -1.04900
H          0.54100       14.62100       -0.46600
