
 OpenBabel11042013043D

 39 41  0  0  1  0  0  0  0  0999 V2000
    1.2780   -0.7410    0.0920 O   0  0  0  0  0  0  0  0  0  0  0  0
    0.1260   -0.0820   -0.1510 C   0  0  0  0  0  0  0  0  0  0  0  0
   -0.8840   -0.6850   -0.4890 O   0  0  0  0  0  0  0  0  0  0  0  0
    0.1990    1.4130   -0.0450 C   0  0  2  0  0  0  0  0  0  0  0  0
    1.9830   -0.2320    0.5240 H   0  0  0  0  0  0  0  0  0  0  0  0
   -0.9360    2.1180    0.1550 C   0  0  1  0  0  0  0  0  0  0  0  0
   -0.8930    3.4560    0.1170 C   0  0  0  0  0  0  0  0  0  0  0  0
    0.2450    4.1580   -0.1310 C   0  0  1  0  0  0  0  0  0  0  0  0
    1.3950    3.4440   -0.2570 C   0  0  1  0  0  0  0  0  0  0  0  0
    1.3610    2.0880   -0.2210 C   0  0  0  0  0  0  0  0  0  0  0  0
    0.1250    5.6720   -0.3480 C   0  0  2  0  0  0  0  0  0  0  0  0
   -1.8390    3.9830    0.2480 H   0  0  0  0  0  0  0  0  0  0  0  0
   -2.2120    1.5310    0.3750 N   0  0  0  0  0  0  0  0  0  0  0  0
    2.2920    1.5530   -0.3930 H   0  0  0  0  0  0  0  0  0  0  0  0
    2.6530    4.0860   -0.4850 C   0  0  0  0  0  0  0  0  0  0  0  0
    1.0600    6.6820    0.3010 C   0  0  0  0  0  0  0  0  0  0  0  0
    0.1090    7.6940    0.7180 N   0  0  0  0  0  0  0  0  0  0  0  0
   -1.1620    7.2090    0.7160 N   0  0  0  0  0  0  0  0  0  0  0  0
   -1.2060    6.1200    0.1230 N   0  0  0  0  0  0  0  0  0  0  0  0
    0.2450    9.0640    0.5570 C   0  0  2  0  0  0  0  0  0  0  0  0
    1.7720    7.0790   -0.4300 H   0  0  0  0  0  0  0  0  0  0  0  0
    1.5890    6.3000    1.1780 H   0  0  0  0  0  0  0  0  0  0  0  0
    0.1480    5.8320   -1.4360 H   0  0  0  0  0  0  0  0  0  0  0  0
   -2.3210    0.5770    0.0240 H   0  0  0  0  0  0  0  0  0  0  0  0
   -3.0320    2.1000    0.1860 H   0  0  0  0  0  0  0  0  0  0  0  0
   -0.8680    9.8350    0.4530 C   0  0  0  0  0  0  0  0  0  0  0  0
   -0.7980   11.1510    0.2100 C   0  0  0  0  0  0  0  0  0  0  0  0
    0.4060   11.7410    0.0890 C   0  0  1  0  0  0  0  0  0  0  0  0
    1.5310   11.0050    0.2190 C   0  0  0  0  0  0  0  0  0  0  0  0
    1.4490    9.6770    0.4530 C   0  0  0  0  0  0  0  0  0  0  0  0
    0.5100   13.1930   -0.2030 C   0  0  0  0  0  0  0  0  0  0  0  0
   -1.7230   11.7090    0.1030 H   0  0  0  0  0  0  0  0  0  0  0  0
   -1.8620    9.4040    0.5300 H   0  0  0  0  0  0  0  0  0  0  0  0
    2.3720    9.1130    0.5440 H   0  0  0  0  0  0  0  0  0  0  0  0
    2.5080   11.4730    0.1240 H   0  0  0  0  0  0  0  0  0  0  0  0
    3.6670    4.6250   -0.6440 N   0  0  0  0  0  0  0  0  0  0  0  0
   -0.6800   13.8230   -0.2060 O   0  0  0  0  0  0  0  0  0  0  0  0
    1.5400   13.8090   -0.4190 O   0  0  0  0  0  0  0  0  0  0  0  0
   -0.4530   14.7540   -0.4040 H   0  0  0  0  0  0  0  0  0  0  0  0
  1  5  1  0  0  0  0
  2  1  1  0  0  0  0
  3  2  2  0  0  0  0
  4  2  1  6  0  0  0
  4 10  5  0  0  0  0
  6  4  5  0  0  0  0
  6  7  5  0  0  0  0
  6 13  1  6  0  0  0
  7 12  1  0  0  0  0
  8  7  5  6  0  0  0
  8 11  1  0  0  0  0
  9  8  5  0  0  0  0
  9 15  1  6  0  0  0
 10  9  5  0  0  0  0
 10 14  1  0  0  0  0
 11 19  1  0  0  0  0
 11 23  1  6  0  0  0
 13 24  1  0  0  0  0
 13 25  1  0  0  0  0
 15 36  3  0  0  0  0
 16 11  1  0  0  0  0
 16 21  1  0  0  0  0
 16 22  1  0  0  0  0
 17 16  1  0  0  0  0
 18 17  1  0  0  0  0
 19 18  2  0  0  0  0
 20 17  1  6  0  0  0
 20 30  5  0  0  0  0
 26 20  5  0  0  0  0
 26 27  5  0  0  0  0
 26 33  1  0  0  0  0
 27 32  1  0  0  0  0
 28 27  5  0  0  0  0
 28 31  1  6  0  0  0
 29 28  5  0  0  0  0
 29 35  1  0  0  0  0
 30 29  5  0  0  0  0
 30 34  1  0  0  0  0
 31 38  2  0  0  0  0
 37 31  1  0  0  0  0
 39 37  1  0  0  0  0
M  END
