
 OpenBabel02032115573D

 32 32  0  0  1  0  0  0  0  0999 V2000
    1.5430    0.2570   -0.0860 O   0  0  0  0  0  0  0  0  0  0  0  0
    0.6600    1.2540   -0.1730 C   0  0  0  0  0  0  0  0  0  0  0  0
   -0.4420    0.7480   -0.1950 O   0  0  0  0  0  0  0  0  0  0  0  0
    0.6410    2.7190   -0.1670 C   0  0  2  0  0  0  0  0  0  0  0  0
    2.5030    0.4170    0.0000 H   0  0  0  0  0  0  0  0  0  0  0  0
   -0.4640    3.4860   -0.3710 C   0  0  1  0  0  0  0  0  0  0  0  0
   -0.4250    4.8310   -0.3070 C   0  0  0  0  0  0  0  0  0  0  0  0
    0.7250    5.5330   -0.0200 C   0  0  1  0  0  0  0  0  0  0  0  0
    1.8500    4.7280    0.0990 C   0  0  0  0  0  0  0  0  0  0  0  0
    1.7810    3.3840    0.0470 C   0  0  0  0  0  0  0  0  0  0  0  0
    0.8000    6.9320    0.0040 C   0  0  0  0  0  0  0  0  0  0  0  0
   -1.3370    5.3930   -0.4960 H   0  0  0  0  0  0  0  0  0  0  0  0
   -2.7390    3.0040    0.2340 C   0  0  0  0  0  0  0  0  0  0  0  0
    2.7020    2.8160    0.1720 H   0  0  0  0  0  0  0  0  0  0  0  0
    2.8240    5.1870    0.2520 H   0  0  0  0  0  0  0  0  0  0  0  0
   -3.1040    4.0300    0.3240 H   0  0  0  0  0  0  0  0  0  0  0  0
   -2.3790    2.6410    1.2010 H   0  0  0  0  0  0  0  0  0  0  0  0
   -3.5510    2.3590   -0.1140 H   0  0  0  0  0  0  0  0  0  0  0  0
   -1.6710    2.9480   -0.7380 O   0  0  0  0  0  0  0  0  0  0  0  0
   -0.0540    8.0080   -0.0200 C   0  0  0  0  0  0  0  0  0  0  0  0
    0.3640    9.4510   -0.0060 C   0  0  0  0  0  0  0  0  0  0  0  0
   -1.1300    7.8430   -0.0660 H   0  0  0  0  0  0  0  0  0  0  0  0
    1.8330    7.2600    0.0580 H   0  0  0  0  0  0  0  0  0  0  0  0
   -0.3640   10.6130   -0.0050 C   0  0  0  0  0  0  0  0  0  0  0  0
   -0.5760   12.0830   -0.0010 C   0  0  0  0  0  0  0  0  0  0  0  0
   -1.4510   10.5370   -0.0040 H   0  0  0  0  0  0  0  0  0  0  0  0
    1.4450    9.5780   -0.0080 H   0  0  0  0  0  0  0  0  0  0  0  0
   -0.7900   13.4870   -0.0030 C   0  0  0  0  0  0  0  0  0  0  0  0
   -0.7250   14.9950   -0.0020 C   0  0  0  0  0  0  0  0  0  0  0  0
   -1.7620   15.8480   -0.0010 O   0  0  0  0  0  0  0  0  0  0  0  0
    0.3860   15.4860   -0.0010 O   0  0  0  0  0  0  0  0  0  0  0  0
   -1.5540   16.8540    0.0000 H   0  0  0  0  0  0  0  0  0  0  0  0
  1  5  1  0  0  0  0
  2  1  1  0  0  0  0
  3  2  2  0  0  0  0
  4  2  1  6  0  0  0
  4 10  5  0  0  0  0
  6  4  5  0  0  0  0
  6  7  5  0  0  0  0
  6 19  1  6  0  0  0
  7 12  1  0  0  0  0
  8  7  5  0  0  0  0
  8 11  1  6  0  0  0
  9  8  5  0  0  0  0
  9 15  1  0  0  0  0
 10  9  5  0  0  0  0
 10 14  1  0  0  0  0
 11 23  1  0  0  0  0
 13 16  1  0  0  0  0
 13 17  1  0  0  0  0
 13 18  1  0  0  0  0
 13 19  1  0  0  0  0
 20 11  2  0  0  0  0
 20 22  1  0  0  0  0
 21 20  1  0  0  0  0
 21 27  1  0  0  0  0
 24 21  2  0  0  0  0
 24 26  1  0  0  0  0
 25 24  1  0  0  0  0
 28 25  3  0  0  0  0
 29 28  1  0  0  0  0
 29 31  2  0  0  0  0
 30 29  1  0  0  0  0
 32 30  1  0  0  0  0
M  END
