
 OpenBabel11042013083D

 24 24  0  0  1  0  0  0  0  0999 V2000
    1.3470    0.2640   -0.0400 O   0  0  0  0  0  0  0  0  0  0  0  0
    0.1580    0.8910    0.0260 C   0  0  0  0  0  0  0  0  0  0  0  0
   -0.8470    0.2010    0.1160 O   0  0  0  0  0  0  0  0  0  0  0  0
    0.1460    2.4130   -0.0450 C   0  0  1  0  0  0  0  0  0  0  0  0
    2.1390    0.8280   -0.0830 H   0  0  0  0  0  0  0  0  0  0  0  0
   -1.0820    3.0240   -0.0950 C   0  0  2  0  0  0  0  0  0  0  0  0
   -1.1540    4.3720   -0.1980 C   0  0  0  0  0  0  0  0  0  0  0  0
   -0.0570    5.1450   -0.1890 C   0  0  2  0  0  0  0  0  0  0  0  0
    1.1560    4.5610   -0.0900 C   0  0  2  0  0  0  0  0  0  0  0  0
    1.2610    3.2040   -0.0400 C   0  0  1  0  0  0  0  0  0  0  0  0
   -0.2060    6.5700   -0.2310 C   0  0  0  0  0  0  0  0  0  0  0  0
   -2.1300    4.8560   -0.2580 H   0  0  0  0  0  0  0  0  0  0  0  0
   -2.4180    2.3060    0.0040 C   0  0  0  0  0  0  0  0  0  0  0  0
    2.8860    2.5410    0.0660 Cl  0  0  0  0  0  0  0  0  0  0  0  0
    2.3200    5.3930    0.0010 C   0  0  0  0  0  0  0  0  0  0  0  0
    3.2650    6.0620    0.1150 N   0  0  0  0  0  0  0  0  0  0  0  0
   -3.2680    2.9950   -0.0590 H   0  0  0  0  0  0  0  0  0  0  0  0
   -2.5570    1.5780   -0.8000 H   0  0  0  0  0  0  0  0  0  0  0  0
   -2.5050    1.8180    0.9830 H   0  0  0  0  0  0  0  0  0  0  0  0
   -0.2610    7.7690   -0.2090 C   0  0  0  0  0  0  0  0  0  0  0  0
   -0.2690    9.2050   -0.1310 C   0  0  0  0  0  0  0  0  0  0  0  0
   -1.4980    9.7470   -0.0990 O   0  0  0  0  0  0  0  0  0  0  0  0
    0.7450    9.8810   -0.0760 O   0  0  0  0  0  0  0  0  0  0  0  0
   -1.3150   10.7060   -0.0190 H   0  0  0  0  0  0  0  0  0  0  0  0
  1  5  1  0  0  0  0
  2  1  1  0  0  0  0
  3  2  2  0  0  0  0
  4  2  1  1  0  0  0
  4 10  5  0  0  0  0
  6  4  5  0  0  0  0
  6  7  5  0  0  0  0
  6 13  1  1  0  0  0
  7 12  1  0  0  0  0
  8  7  5  0  0  0  0
  8 11  1  1  0  0  0
  9  8  5  0  0  0  0
  9 15  1  1  0  0  0
 10  9  5  0  0  0  0
 10 14  1  1  0  0  0
 13 17  1  0  0  0  0
 13 18  1  0  0  0  0
 13 19  1  0  0  0  0
 15 16  3  0  0  0  0
 20 11  3  0  0  0  0
 21 20  1  0  0  0  0
 21 23  2  0  0  0  0
 22 21  1  0  0  0  0
 24 22  1  0  0  0  0
M  END
