
 OpenBabel11042013083D

 28 29  0  0  1  0  0  0  0  0999 V2000
    1.3380    0.0160    0.0240 O   0  0  0  0  0  0  0  0  0  0  0  0
    0.1200    0.5890   -0.0180 C   0  0  0  0  0  0  0  0  0  0  0  0
   -0.9020   -0.0800    0.0330 O   0  0  0  0  0  0  0  0  0  0  0  0
    0.1000    2.0780   -0.0910 C   0  0  1  0  0  0  0  0  0  0  0  0
    2.1060    0.6180   -0.0130 H   0  0  0  0  0  0  0  0  0  0  0  0
   -1.1090    2.6720   -0.0750 C   0  0  0  0  0  0  0  0  0  0  0  0
   -1.2250    4.0180   -0.0560 C   0  0  2  0  0  0  0  0  0  0  0  0
   -0.1120    4.8210   -0.0540 C   0  0  2  0  0  0  0  0  0  0  0  0
    1.1110    4.2050   -0.1450 C   0  0  2  0  0  0  0  0  0  0  0  0
    1.1980    2.8540   -0.1520 C   0  0  1  0  0  0  0  0  0  0  0  0
   -0.3290    6.3280    0.1590 C   0  0  1  0  0  0  0  0  0  0  0  0
   -2.5670    4.5360   -0.0030 C   0  0  0  0  0  0  0  0  0  0  0  0
   -2.0120    2.0580   -0.0480 H   0  0  0  0  0  0  0  0  0  0  0  0
    2.4170    2.2690   -0.1660 F   0  0  0  0  0  0  0  0  0  0  0  0
    2.3540    4.9100   -0.2100 C   0  0  0  0  0  0  0  0  0  0  0  0
   -3.6580    4.9330    0.0420 N   0  0  0  0  0  0  0  0  0  0  0  0
    3.3670    5.4760   -0.2760 N   0  0  0  0  0  0  0  0  0  0  0  0
    0.7510    7.3850    0.2430 C   0  0  0  0  0  0  0  0  0  0  0  0
   -0.0630    8.5320   -0.0640 N   0  0  0  0  0  0  0  0  0  0  0  0
   -1.1540    8.1890   -0.8070 N   0  0  0  0  0  0  0  0  0  0  0  0
   -1.2290    6.9300   -0.8580 N   0  0  0  0  0  0  0  0  0  0  0  0
    0.3170    9.8300    0.1110 C   0  0  0  0  0  0  0  0  0  0  0  0
    1.5140    7.3380   -0.5350 H   0  0  0  0  0  0  0  0  0  0  0  0
    1.2090    7.4680    1.2330 H   0  0  0  0  0  0  0  0  0  0  0  0
   -0.8670    6.3880    1.1200 H   0  0  0  0  0  0  0  0  0  0  0  0
   -0.6620   10.7210   -0.1450 O   0  0  0  0  0  0  0  0  0  0  0  0
    1.4070   10.2170    0.5040 O   0  0  0  0  0  0  0  0  0  0  0  0
   -0.2560   11.5860    0.0620 H   0  0  0  0  0  0  0  0  0  0  0  0
  1  5  1  0  0  0  0
  2  1  1  0  0  0  0
  3  2  2  0  0  0  0
  4  2  1  1  0  0  0
  4 10  5  0  0  0  0
  6  4  5  0  0  0  0
  6  7  5  0  0  0  0
  6 13  1  0  0  0  0
  7 12  1  1  0  0  0
  8  7  5  0  0  0  0
  8 11  1  1  0  0  0
  9  8  5  0  0  0  0
  9 15  1  1  0  0  0
 10  9  5  0  0  0  0
 10 14  1  1  0  0  0
 11 21  1  0  0  0  0
 11 25  1  1  0  0  0
 12 16  3  0  0  0  0
 15 17  3  0  0  0  0
 18 11  1  0  0  0  0
 18 23  1  0  0  0  0
 18 24  1  0  0  0  0
 19 18  1  0  0  0  0
 20 19  1  0  0  0  0
 21 20  2  0  0  0  0
 22 19  1  0  0  0  0
 22 27  2  0  0  0  0
 26 22  1  0  0  0  0
 28 26  1  0  0  0  0
M  END
