50

O          0.93700       -0.08800       -0.22500
C         -0.23400        0.53300       -0.48700
O         -1.23700       -0.14500       -0.65600
C         -0.19800        2.05400       -0.43900
H          1.69000        0.49000       -0.44000
C         -1.35500        2.72200       -0.13000
C         -1.26300        4.06300       -0.00300
C         -0.14000        4.79100       -0.19700
C          0.96700        4.11100       -0.54800
C          0.95700        2.75600       -0.63800
C         -0.15700        6.27400        0.18600
H         -2.16100        4.57000        0.32900
C         -2.70400        2.06200        0.14300
C          3.04800        2.19400        0.25000
H          1.88600        4.66200       -0.71100
O          0.60400        7.33100       -0.50700
C         -1.35000        8.32800        0.19800
C         -1.56700        6.86000        0.33200
C          0.47900       10.00900        0.14700
H         -2.25700        6.54000       -0.45800
H         -1.73600        8.61700       -0.78700
H         -1.88200        8.89200        0.97400
H         -2.00700        6.60400        1.30200
H          0.52400        8.26400        1.26300
C          0.16400        8.49300        0.24600
H          0.28600        6.23700        1.19100
C          1.72200       10.82300       -0.21700
C          1.21100       12.22300        0.25500
N         -0.27700       12.13500        0.12500
N         -0.51600       10.88100       -0.51400
C          1.64800       13.59000       -0.29000
H         -1.47500       10.58100       -0.34900
H         -0.61400       12.94400       -0.41400
H          2.61100       10.52100        0.34700
H          1.42600       12.29700        1.32900
H          1.95100       10.78600       -1.29000
H          0.36200       10.22300        1.23000
H          3.75300        1.35900        0.18000
H          2.50200        2.08700        1.19500
H          3.60500        3.13200        0.22300
O          2.15800        2.08800       -0.87600
C         -3.95400        2.95400        0.04300
H         -4.04700        3.60800        0.91800
H         -3.92600        3.57300       -0.86000
H         -4.85600        2.34000       -0.00200
H         -2.68800        1.60400        1.13900
H         -2.89700        1.27500       -0.59100
O          0.59000       14.45600       -0.34600
O          2.78400       13.99700       -0.46300
H          0.96100       15.36100       -0.36600
