45

O          1.40700       -0.69000        0.32900
C          0.27000       -0.04000        0.01900
O         -0.71600       -0.66900       -0.34800
C          0.29400        1.46600        0.14300
H          2.07600       -0.15200        0.77600
C         -0.95100        1.97800        0.22100
C         -1.21400        3.30500        0.18200
C         -0.17000        4.18700        0.09000
C          1.08300        3.66100        0.09800
C          1.34500        2.32800        0.10600
C         -0.27400        5.68900       -0.26000
C         -2.69000        3.64200        0.15400
H         -1.79900        1.29100        0.25200
C          2.78800        1.91400       -0.04500
H          1.91800        4.35800        0.01700
H         -2.96200        4.33200        0.95500
H         -2.98200        4.03300       -0.82500
H         -3.32800        2.76300        0.31000
H          3.17800        1.51500        0.89700
H          3.43400        2.75600       -0.31900
H          2.90300        1.17200       -0.84200
O          0.42700        6.70000        0.54800
C         -1.37700        7.76500       -0.55700
C         -1.64700        6.29900       -0.40600
C          0.43500        9.34000        0.36100
H         -2.21500        5.92200       -1.25600
H         -1.55700        8.13500       -1.57000
H         -2.09200        8.26100        0.10100
H         -2.21700        6.17800        0.52000
H          0.67500        7.85700       -1.10100
C          0.09700        7.93000       -0.16500
H          0.20300        5.73700       -1.25400
C         -0.55400       10.19300        0.75200
C         -0.38000       11.52200        0.76900
C          0.80900       12.05100        0.43400
C          1.84800       11.22700        0.18400
C          1.65500        9.88900        0.14100
C          0.94600       13.52200        0.25800
H         -1.23700       12.15900        0.98200
H         -1.56100        9.85900        0.96700
H          2.48900        9.25700       -0.16500
H          2.82500       11.63900       -0.06400
O         -0.24300       14.12700        0.03700
O          1.98700       14.15100        0.19400
H         -0.01900       15.05700       -0.16800
