
 OpenBabel11042013083D

 35 36  0  0  1  0  0  0  0  0999 V2000
    1.3500   -0.3650   -0.1500 O   0  0  0  0  0  0  0  0  0  0  0  0
    0.1620    0.2710   -0.2290 C   0  0  0  0  0  0  0  0  0  0  0  0
   -0.8780   -0.3600   -0.3660 O   0  0  0  0  0  0  0  0  0  0  0  0
    0.2100    1.7650   -0.0890 C   0  0  1  0  0  0  0  0  0  0  0  0
    2.1150    0.1860    0.0750 H   0  0  0  0  0  0  0  0  0  0  0  0
   -0.9870    2.3650    0.0560 C   0  0  0  0  0  0  0  0  0  0  0  0
   -1.0710    3.6950    0.2570 C   0  0  0  0  0  0  0  0  0  0  0  0
    0.0330    4.4830    0.3140 C   0  0  2  0  0  0  0  0  0  0  0  0
    1.2270    3.8750    0.1110 C   0  0  0  0  0  0  0  0  0  0  0  0
    1.3190    2.5410   -0.0870 C   0  0  0  0  0  0  0  0  0  0  0  0
   -0.1300    5.9810    0.6160 C   0  0  1  0  0  0  0  0  0  0  0  0
   -2.0640    4.1180    0.3790 H   0  0  0  0  0  0  0  0  0  0  0  0
   -1.9100    1.7870    0.0310 H   0  0  0  0  0  0  0  0  0  0  0  0
    2.3110    2.1290   -0.2350 H   0  0  0  0  0  0  0  0  0  0  0  0
    2.1410    4.4710    0.1300 H   0  0  0  0  0  0  0  0  0  0  0  0
    1.0370    6.8090    0.3600 O   0  0  0  0  0  0  0  0  0  0  0  0
   -0.9030    8.0650   -0.1840 C   0  0  0  0  0  0  0  0  0  0  0  0
   -1.2930    6.6220   -0.1410 C   0  0  0  0  0  0  0  0  0  0  0  0
    1.1700    9.2690    0.1000 C   0  0  0  0  0  0  0  0  0  0  0  0
   -2.2530    6.4720    0.3620 H   0  0  0  0  0  0  0  0  0  0  0  0
   -1.3880    8.6280   -0.9860 H   0  0  0  0  0  0  0  0  0  0  0  0
   -1.1750    8.5410    0.7690 H   0  0  0  0  0  0  0  0  0  0  0  0
   -1.3740    6.2350   -1.1630 H   0  0  0  0  0  0  0  0  0  0  0  0
    0.8690    7.8310   -1.4040 H   0  0  0  0  0  0  0  0  0  0  0  0
    0.6040    7.9900   -0.3530 C   0  0  1  0  0  0  0  0  0  0  0  0
   -0.3090    6.0670    1.6960 H   0  0  0  0  0  0  0  0  0  0  0  0
    1.3150   10.4510    0.2750 C   0  0  0  0  0  0  0  0  0  0  0  0
    1.2080   11.9880    0.3050 C   0  0  0  0  0  0  0  0  0  0  0  0
    0.9990   13.1690    0.2370 C   0  0  0  0  0  0  0  0  0  0  0  0
    0.6840   14.6740    0.1130 C   0  0  0  0  0  0  0  0  0  0  0  0
    0.4750   15.8560    0.0420 C   0  0  0  0  0  0  0  0  0  0  0  0
    0.2930   17.2790   -0.0150 C   0  0  0  0  0  0  0  0  0  0  0  0
   -0.9910   17.6840   -0.0260 O   0  0  0  0  0  0  0  0  0  0  0  0
    1.2210   18.0680   -0.0350 O   0  0  0  0  0  0  0  0  0  0  0  0
   -0.9210   18.6620   -0.0460 H   0  0  0  0  0  0  0  0  0  0  0  0
  1  5  1  0  0  0  0
  2  1  1  0  0  0  0
  3  2  2  0  0  0  0
  4  2  1  1  0  0  0
  4 10  5  0  0  0  0
  6  4  5  0  0  0  0
  6  7  5  0  0  0  0
  6 13  1  0  0  0  0
  7 12  1  0  0  0  0
  8  7  5  1  0  0  0
  8 11  1  0  0  0  0
  9  8  5  0  0  0  0
  9 15  1  0  0  0  0
 10  9  5  0  0  0  0
 10 14  1  0  0  0  0
 11 18  1  0  0  0  0
 11 26  1  1  0  0  0
 16 11  1  0  0  0  0
 17 25  1  0  0  0  0
 17 22  1  0  0  0  0
 18 17  1  0  0  0  0
 18 23  1  0  0  0  0
 19 25  1  0  0  0  0
 20 18  1  0  0  0  0
 21 17  1  0  0  0  0
 25 16  1  0  0  0  0
 25 24  1  6  0  0  0
 27 19  3  0  0  0  0
 28 27  1  0  0  0  0
 29 28  3  0  0  0  0
 30 29  1  0  0  0  0
 31 30  3  0  0  0  0
 32 31  1  0  0  0  0
 32 34  2  0  0  0  0
 33 32  1  0  0  0  0
 35 33  1  0  0  0  0
M  END
