
 OpenBabel11042013083D

 24 24  0  0  1  0  0  0  0  0999 V2000
    1.5420   -0.1770    0.2190 O   0  0  0  0  0  0  0  0  0  0  0  0
    0.4330    0.5660    0.3950 C   0  0  0  0  0  0  0  0  0  0  0  0
   -0.6210    0.0480    0.7390 O   0  0  0  0  0  0  0  0  0  0  0  0
    0.5520    2.0280    0.0960 C   0  0  1  0  0  0  0  0  0  0  0  0
    2.3530    0.3170   -0.0050 H   0  0  0  0  0  0  0  0  0  0  0  0
   -0.6260    2.6280   -0.1990 C   0  0  0  0  0  0  0  0  0  0  0  0
   -0.7070    3.9490   -0.4680 C   0  0  1  0  0  0  0  0  0  0  0  0
    0.4210    4.7110   -0.4410 C   0  0  1  0  0  0  0  0  0  0  0  0
    1.5960    4.0980   -0.1720 C   0  0  1  0  0  0  0  0  0  0  0  0
    1.6780    2.7770    0.0950 C   0  0  1  0  0  0  0  0  0  0  0  0
    0.4150    6.0680   -0.6980 N   0  0  0  0  0  0  0  0  0  0  0  0
   -2.8470    4.6560    0.2130 C   0  0  0  0  0  0  0  0  0  0  0  0
   -1.5450    2.0430   -0.2370 H   0  0  0  0  0  0  0  0  0  0  0  0
    3.2540    2.1250    0.4300 Cl  0  0  0  0  0  0  0  0  0  0  0  0
    2.7280    4.8420   -0.1740 F   0  0  0  0  0  0  0  0  0  0  0  0
   -0.2620    6.7520    0.1070 N   0  0  0  0  0  0  0  0  0  0  0  0
   -0.1700    8.0880   -0.1630 C   0  0  0  0  0  0  0  0  0  0  0  0
   -2.4440    5.3040    0.9960 H   0  0  0  0  0  0  0  0  0  0  0  0
   -3.1380    3.6880    0.6320 H   0  0  0  0  0  0  0  0  0  0  0  0
   -3.7450    5.1320   -0.1940 H   0  0  0  0  0  0  0  0  0  0  0  0
   -1.9190    4.5040   -0.8600 O   0  0  0  0  0  0  0  0  0  0  0  0
   -1.3480    8.7170    0.0490 O   0  0  0  0  0  0  0  0  0  0  0  0
    0.8050    8.7400   -0.5110 O   0  0  0  0  0  0  0  0  0  0  0  0
   -1.1260    9.6460   -0.1650 H   0  0  0  0  0  0  0  0  0  0  0  0
  1  5  1  0  0  0  0
  2  1  1  0  0  0  0
  3  2  2  0  0  0  0
  4  2  1  1  0  0  0
  4 10  5  0  0  0  0
  6  4  5  0  0  0  0
  6  7  5  0  0  0  0
  6 13  1  0  0  0  0
  7 21  1  6  0  0  0
  8  7  5  0  0  0  0
  8 11  1  6  0  0  0
  9  8  5  0  0  0  0
  9 15  1  6  0  0  0
 10  9  5  0  0  0  0
 10 14  1  1  0  0  0
 12 18  1  0  0  0  0
 12 19  1  0  0  0  0
 12 20  1  0  0  0  0
 12 21  1  0  0  0  0
 16 11  2  0  0  0  0
 17 16  1  0  0  0  0
 17 23  2  0  0  0  0
 22 17  1  0  0  0  0
 24 22  1  0  0  0  0
M  END
