44

O          1.69200       -0.39700       -0.19400
C          0.48400        0.10700       -0.52500
O         -0.38300       -0.57200       -1.05000
C          0.29200        1.53900       -0.15600
H          2.23000        0.18800        0.37600
C         -0.95800        1.89500        0.19300
C         -1.25500        3.17800        0.49800
C         -0.29400        4.15100        0.42700
C          0.96600        3.76400        0.10300
C          1.26100        2.47800       -0.18600
C         -0.67900        5.63400        0.66500
C         -2.60900        3.46300        0.86500
H         -1.74600        1.14000        0.21400
H          2.27800        2.22800       -0.47800
H          1.76100        4.50700        0.04800
O          0.41800        6.56800        0.61900
C         -1.17100        7.30300       -1.03500
C         -1.72000        6.09000       -0.35500
C          0.25400        9.01500        0.09900
H         -2.66000        6.32700        0.15500
H         -1.05200        7.14200       -2.11200
H         -1.88600        8.13000       -0.95300
H         -1.95700        5.33400       -1.11200
H          0.95400        7.40500       -1.15100
C          0.18400        7.56300       -0.38500
H         -1.07600        5.71800        1.68400
N         -3.70400        3.71700        1.15400
C         -0.74700        9.57200        0.82500
C         -0.86900       10.90900        0.91800
C          0.03500       11.71300        0.32100
C          1.13000       11.18300       -0.27100
C          1.21200        9.83900       -0.39100
C         -0.23500       13.17200        0.24200
H         -1.74100       11.32900        1.41600
H         -1.53300        8.95100        1.25100
H          2.03600        9.43000       -0.97100
C          3.14800       12.28700        0.01300
H          3.68200       13.15600       -0.38200
H          3.84700       11.44700        0.07100
H          2.78400       12.53900        1.01600
O          2.08600       11.97300       -0.89200
O         -1.53800       13.41300       -0.02900
O          0.56300       14.08900        0.31000
H         -1.57400       14.37900       -0.18200
