
 OpenBabel11042013083D

 23 23  0  0  1  0  0  0  0  0999 V2000
    1.4670    0.5840   -0.0120 O   0  0  0  0  0  0  0  0  0  0  0  0
    0.2520    1.1710   -0.0130 C   0  0  0  0  0  0  0  0  0  0  0  0
   -0.7710    0.5000   -0.0350 O   0  0  0  0  0  0  0  0  0  0  0  0
    0.2450    2.6660    0.0060 C   0  0  1  0  0  0  0  0  0  0  0  0
    2.2290    1.1990    0.0110 H   0  0  0  0  0  0  0  0  0  0  0  0
   -0.9730    3.2380   -0.0540 C   0  0  0  0  0  0  0  0  0  0  0  0
   -1.0860    4.5730   -0.0270 C   0  0  2  0  0  0  0  0  0  0  0  0
    0.0020    5.3670    0.0580 C   0  0  2  0  0  0  0  0  0  0  0  0
    1.2570    4.8210    0.1130 C   0  0  2  0  0  0  0  0  0  0  0  0
    1.3350    3.4550    0.0920 C   0  0  1  0  0  0  0  0  0  0  0  0
   -0.2160    6.7820    0.0890 C   0  0  0  0  0  0  0  0  0  0  0  0
   -2.3260    5.1110   -0.0810 F   0  0  0  0  0  0  0  0  0  0  0  0
   -1.8820    2.6450   -0.1150 H   0  0  0  0  0  0  0  0  0  0  0  0
    2.5540    2.8640    0.1670 F   0  0  0  0  0  0  0  0  0  0  0  0
    2.5510    5.6680    0.2840 C   0  0  0  0  0  0  0  0  0  0  0  0
    3.3490    6.2230   -0.2570 H   0  0  0  0  0  0  0  0  0  0  0  0
    3.1990    4.8890   -0.1390 H   0  0  0  0  0  0  0  0  0  0  0  0
    2.0820    6.5870   -0.0810 H   0  0  0  0  0  0  0  0  0  0  0  0
   -0.3200    7.9790    0.0810 C   0  0  0  0  0  0  0  0  0  0  0  0
   -0.3340    9.4110    0.0400 C   0  0  0  0  0  0  0  0  0  0  0  0
   -1.5610    9.9580    0.0260 O   0  0  0  0  0  0  0  0  0  0  0  0
    0.6820   10.0840    0.0110 O   0  0  0  0  0  0  0  0  0  0  0  0
   -1.3800   10.9190   -0.0100 H   0  0  0  0  0  0  0  0  0  0  0  0
  1  5  1  0  0  0  0
  2  1  1  0  0  0  0
  3  2  2  0  0  0  0
  4  2  1  1  0  0  0
  4 10  5  0  0  0  0
  6  4  5  0  0  0  0
  6  7  5  0  0  0  0
  6 13  1  0  0  0  0
  7 12  1  1  0  0  0
  8  7  5  0  0  0  0
  8 11  1  1  0  0  0
  9  8  5  0  0  0  0
  9 15  1  1  0  0  0
 10  9  5  0  0  0  0
 10 14  1  1  0  0  0
 15 16  1  0  0  0  0
 15 17  1  0  0  0  0
 15 18  1  0  0  0  0
 19 11  3  0  0  0  0
 20 19  1  0  0  0  0
 20 22  2  0  0  0  0
 21 20  1  0  0  0  0
 23 21  1  0  0  0  0
M  END
