23

O          1.46700        0.58400       -0.01200
C          0.25200        1.17100       -0.01300
O         -0.77100        0.50000       -0.03500
C          0.24500        2.66600        0.00600
H          2.22900        1.19900        0.01100
C         -0.97300        3.23800       -0.05400
C         -1.08600        4.57300       -0.02700
C          0.00200        5.36700        0.05800
C          1.25700        4.82100        0.11300
C          1.33500        3.45500        0.09200
C         -0.21600        6.78200        0.08900
F         -2.32600        5.11100       -0.08100
H         -1.88200        2.64500       -0.11500
F          2.55400        2.86400        0.16700
C          2.55100        5.66800        0.28400
H          3.34900        6.22300       -0.25700
H          3.19900        4.88900       -0.13900
H          2.08200        6.58700       -0.08100
C         -0.32000        7.97900        0.08100
C         -0.33400        9.41100        0.04000
O         -1.56100        9.95800        0.02600
O          0.68200       10.08400        0.01100
H         -1.38000       10.91900       -0.01000
