
 OpenBabel02032115573D

 33 34  0  0  1  0  0  0  0  0999 V2000
    1.6500    0.0180    0.1170 O   0  0  0  0  0  0  0  0  0  0  0  0
    0.7660    0.9130   -0.2240 C   0  0  0  0  0  0  0  0  0  0  0  0
   -0.3550    0.4660   -0.3790 O   0  0  0  0  0  0  0  0  0  0  0  0
    1.0300    2.3150   -0.4760 C   0  0  1  0  0  0  0  0  0  0  0  0
    2.5030    0.4170    0.0000 H   0  0  0  0  0  0  0  0  0  0  0  0
    0.0710    3.1610   -0.8710 C   0  0  2  0  0  0  0  0  0  0  0  0
    0.2620    4.4460   -1.1270 C   0  0  0  0  0  0  0  0  0  0  0  0
    1.4080    5.0640   -0.7010 C   0  0  2  0  0  0  0  0  0  0  0  0
    2.4450    4.1970   -0.4010 C   0  0  0  0  0  0  0  0  0  0  0  0
    2.2360    2.8690   -0.2910 C   0  0  0  0  0  0  0  0  0  0  0  0
    1.2150    6.4350   -0.5960 C   0  0  0  0  0  0  0  0  0  0  0  0
   -0.6050    5.0340   -1.4370 H   0  0  0  0  0  0  0  0  0  0  0  0
   -1.1870    2.9310   -0.7180 O   0  0  0  0  0  0  0  0  0  0  0  0
    3.0730    2.2430    0.0110 H   0  0  0  0  0  0  0  0  0  0  0  0
    3.4270    4.6050   -0.1960 H   0  0  0  0  0  0  0  0  0  0  0  0
    0.0870    6.9700   -0.0880 C   0  0  0  0  0  0  0  0  0  0  0  0
   -0.3300    8.4360   -0.1030 C   0  0  1  0  0  0  0  0  0  0  0  0
   -0.7090    6.3330    0.2960 H   0  0  0  0  0  0  0  0  0  0  0  0
    1.9780    7.0920   -0.9940 H   0  0  0  0  0  0  0  0  0  0  0  0
    0.7980    9.4740    0.0810 C   0  0  0  0  0  0  0  0  0  0  0  0
    0.2300   10.8360   -0.0050 N   0  0  0  0  0  0  0  0  0  0  0  0
   -0.8470   10.7220   -0.2080 N   0  0  0  0  0  0  0  0  0  0  0  0
   -0.8950    9.3800   -0.2180 N   0  0  0  0  0  0  0  0  0  0  0  0
    1.0190   11.9020    0.1270 N   0  0  0  0  0  0  0  0  0  0  0  0
    1.5460    9.3500   -0.7090 H   0  0  0  0  0  0  0  0  0  0  0  0
    1.2790    9.3290    1.0530 H   0  0  0  0  0  0  0  0  0  0  0  0
   -1.1280    8.5800    0.6330 H   0  0  0  0  0  0  0  0  0  0  0  0
    0.8540   13.1720    0.0970 N   0  0  0  0  0  0  0  0  0  0  0  0
    0.4570   14.5080    0.0320 C   0  0  0  0  0  0  0  0  0  0  0  0
   -1.1340    3.5950    0.0000 H   0  0  0  0  0  0  0  0  0  0  0  0
   -0.8400   14.6600    0.0390 O   0  0  0  0  0  0  0  0  0  0  0  0
    1.2050   15.4620   -0.0100 O   0  0  0  0  0  0  0  0  0  0  0  0
   -1.0120   15.6190    0.0000 H   0  0  0  0  0  0  0  0  0  0  0  0
  1  5  1  0  0  0  0
  2  1  1  0  0  0  0
  3  2  2  0  0  0  0
  4  2  1  1  0  0  0
  4 10  5  0  0  0  0
  6  4  5  0  0  0  0
  6  7  5  0  0  0  0
  6 13  1  1  0  0  0
  7 12  1  0  0  0  0
  8  7  5  0  0  0  0
  8 11  1  1  0  0  0
  9  8  5  0  0  0  0
  9 15  1  0  0  0  0
 10  9  5  0  0  0  0
 10 14  1  0  0  0  0
 11 19  1  0  0  0  0
 13 30  1  0  0  0  0
 16 11  2  0  0  0  0
 16 18  1  0  0  0  0
 17 16  1  0  0  0  0
 17 23  1  0  0  0  0
 17 27  1  1  0  0  0
 20 17  1  0  0  0  0
 20 25  1  0  0  0  0
 20 26  1  0  0  0  0
 21 20  1  0  0  0  0
 22 21  1  0  0  0  0
 23 22  2  0  0  0  0
 24 21  1  0  0  0  0
 28 24  2  0  0  0  0
 29 28  1  0  0  0  0
 29 32  2  0  0  0  0
 31 29  1  0  0  0  0
 33 31  1  0  0  0  0
M  END
