
 OpenBabel11042013083D

 32 33  0  0  1  0  0  0  0  0999 V2000
    0.8360   -0.1250   -0.0470 O   0  0  0  0  0  0  0  0  0  0  0  0
   -0.2520    0.6600   -0.1520 C   0  0  0  0  0  0  0  0  0  0  0  0
   -1.3620    0.1420   -0.1820 O   0  0  0  0  0  0  0  0  0  0  0  0
   -0.0310    2.1590   -0.1520 C   0  0  1  0  0  0  0  0  0  0  0  0
    1.6830    0.3530   -0.0250 H   0  0  0  0  0  0  0  0  0  0  0  0
   -1.1960    2.8270   -0.1010 C   0  0  0  0  0  0  0  0  0  0  0  0
   -1.2750    4.1690   -0.0160 C   0  0  2  0  0  0  0  0  0  0  0  0
   -0.1350    4.9300    0.0230 C   0  0  2  0  0  0  0  0  0  0  0  0
    1.0700    4.2600   -0.0530 C   0  0  2  0  0  0  0  0  0  0  0  0
    1.1140    2.8860   -0.1580 C   0  0  2  0  0  0  0  0  0  0  0  0
   -0.3050    6.4750    0.2220 C   0  0  1  0  0  0  0  0  0  0  0  0
   -2.6920    4.7070    0.1140 C   0  0  0  0  0  0  0  0  0  0  0  0
   -2.1330    2.2650   -0.1100 H   0  0  0  0  0  0  0  0  0  0  0  0
    2.8110    2.0040   -0.3160 Br  0  0  0  0  0  0  0  0  0  0  0  0
    2.4090    4.9780    0.0700 C   0  0  0  0  0  0  0  0  0  0  0  0
    2.3510    5.9740    0.4850 H   0  0  0  0  0  0  0  0  0  0  0  0
    2.9110    5.0380   -0.9020 H   0  0  0  0  0  0  0  0  0  0  0  0
    3.0650    4.4770    0.7910 H   0  0  0  0  0  0  0  0  0  0  0  0
    0.7390    7.5390   -0.0680 C   0  0  0  0  0  0  0  0  0  0  0  0
   -0.1170    8.6800   -0.2570 N   0  0  0  0  0  0  0  0  0  0  0  0
   -1.3630    8.3100   -0.6350 N   0  0  0  0  0  0  0  0  0  0  0  0
   -1.4460    7.0530   -0.5590 N   0  0  0  0  0  0  0  0  0  0  0  0
    0.2610    9.9820   -0.0710 C   0  0  0  0  0  0  0  0  0  0  0  0
    1.4280    7.7360    0.7570 H   0  0  0  0  0  0  0  0  0  0  0  0
    1.2810    7.3820   -1.0070 H   0  0  0  0  0  0  0  0  0  0  0  0
   -0.5770    6.5820    1.2840 H   0  0  0  0  0  0  0  0  0  0  0  0
   -3.4140    3.9200    0.3660 H   0  0  0  0  0  0  0  0  0  0  0  0
   -3.0320    5.1450   -0.8300 H   0  0  0  0  0  0  0  0  0  0  0  0
   -2.7690    5.4370    0.9250 H   0  0  0  0  0  0  0  0  0  0  0  0
   -0.7400   10.8760   -0.2370 O   0  0  0  0  0  0  0  0  0  0  0  0
    1.3730   10.3740    0.2540 O   0  0  0  0  0  0  0  0  0  0  0  0
   -0.3210   11.7380   -0.0410 H   0  0  0  0  0  0  0  0  0  0  0  0
  1  5  1  0  0  0  0
  2  1  1  0  0  0  0
  3  2  2  0  0  0  0
  4  2  1  1  0  0  0
  4 10  5  0  0  0  0
  6  4  5  0  0  0  0
  6  7  5  0  0  0  0
  6 13  1  0  0  0  0
  7 12  1  1  0  0  0
  8  7  5  0  0  0  0
  8 11  1  1  0  0  0
  9  8  5  0  0  0  0
  9 15  1  1  0  0  0
 10  9  5  0  0  0  0
 10 14  1  6  0  0  0
 11 22  1  0  0  0  0
 11 26  1  1  0  0  0
 12 27  1  0  0  0  0
 12 28  1  0  0  0  0
 12 29  1  0  0  0  0
 15 16  1  0  0  0  0
 15 17  1  0  0  0  0
 15 18  1  0  0  0  0
 19 11  1  0  0  0  0
 19 24  1  0  0  0  0
 19 25  1  0  0  0  0
 20 19  1  0  0  0  0
 21 20  1  0  0  0  0
 22 21  2  0  0  0  0
 23 20  1  0  0  0  0
 23 31  2  0  0  0  0
 30 23  1  0  0  0  0
 32 30  1  0  0  0  0
M  END
