32

O          0.83600       -0.12500       -0.04700
C         -0.25200        0.66000       -0.15200
O         -1.36200        0.14200       -0.18200
C         -0.03100        2.15900       -0.15200
H          1.68300        0.35300       -0.02500
C         -1.19600        2.82700       -0.10100
C         -1.27500        4.16900       -0.01600
C         -0.13500        4.93000        0.02300
C          1.07000        4.26000       -0.05300
C          1.11400        2.88600       -0.15800
C         -0.30500        6.47500        0.22200
C         -2.69200        4.70700        0.11400
H         -2.13300        2.26500       -0.11000
Br         2.81100        2.00400       -0.31600
C          2.40900        4.97800        0.07000
H          2.35100        5.97400        0.48500
H          2.91100        5.03800       -0.90200
H          3.06500        4.47700        0.79100
C          0.73900        7.53900       -0.06800
N         -0.11700        8.68000       -0.25700
N         -1.36300        8.31000       -0.63500
N         -1.44600        7.05300       -0.55900
C          0.26100        9.98200       -0.07100
H          1.42800        7.73600        0.75700
H          1.28100        7.38200       -1.00700
H         -0.57700        6.58200        1.28400
H         -3.41400        3.92000        0.36600
H         -3.03200        5.14500       -0.83000
H         -2.76900        5.43700        0.92500
O         -0.74000       10.87600       -0.23700
O          1.37300       10.37400        0.25400
H         -0.32100       11.73800       -0.04100
