42

O          1.30800       -0.39100        0.43800
C          0.30200        0.22800       -0.23200
O         -0.61800       -0.42900       -0.69900
C          0.37600        1.72800       -0.24700
H          2.03300        0.12200        0.83200
C         -0.78100        2.42400       -0.04800
C         -0.69400        3.75900        0.12400
C          0.48400        4.41900        0.17500
C          1.59500        3.73200       -0.17900
C          1.54200        2.40400       -0.40800
C          0.58300        5.81500        0.79200
H         -1.60000        4.31700        0.34500
C         -3.20400        2.38000       -0.28000
C          2.76300        1.75400       -0.72500
H          2.55900        4.24400       -0.20200
C          1.32000        6.94200        0.10400
N          0.34500        8.00600        0.20100
N         -0.83900        7.58100        0.70800
N         -0.75200        6.39000        1.07100
C          0.37400        9.14100       -0.70100
H          1.57300        6.74100       -0.93800
H          2.21800        7.23300        0.66200
H          1.04800        5.65100        1.77400
N          3.78100        1.21300       -0.89400
O          1.33700       10.07100       -0.20600
C         -0.84600       10.89200        0.32600
C         -0.93600        9.90200       -0.80800
C          1.02100       12.53000       -0.06700
H         -0.96200       10.44300       -1.75900
H         -1.44300       11.78600        0.12300
H         -1.22800       10.44900        1.25300
H         -1.83600        9.28200       -0.76100
H          0.96100       11.11600        1.51200
C          0.65100       11.14200        0.46200
H          0.68300        8.77200       -1.68300
H         -3.36400        3.33000        0.23600
H         -3.26300        2.51400       -1.36400
H         -4.02100        1.71900        0.02800
O         -1.98300        1.74300        0.08400
O          0.36600       13.51900        0.58400
O          1.81600       12.80500       -0.95000
H          0.69100       14.34300        0.16300
