
 OpenBabel11042013083D

 42 44  0  0  1  0  0  0  0  0999 V2000
    1.3080   -0.3910    0.4380 O   0  0  0  0  0  0  0  0  0  0  0  0
    0.3020    0.2280   -0.2320 C   0  0  0  0  0  0  0  0  0  0  0  0
   -0.6180   -0.4290   -0.6990 O   0  0  0  0  0  0  0  0  0  0  0  0
    0.3760    1.7280   -0.2470 C   0  0  1  0  0  0  0  0  0  0  0  0
    2.0330    0.1220    0.8320 H   0  0  0  0  0  0  0  0  0  0  0  0
   -0.7810    2.4240   -0.0480 C   0  0  2  0  0  0  0  0  0  0  0  0
   -0.6940    3.7590    0.1240 C   0  0  0  0  0  0  0  0  0  0  0  0
    0.4840    4.4190    0.1750 C   0  0  2  0  0  0  0  0  0  0  0  0
    1.5950    3.7320   -0.1790 C   0  0  0  0  0  0  0  0  0  0  0  0
    1.5420    2.4040   -0.4080 C   0  0  1  0  0  0  0  0  0  0  0  0
    0.5830    5.8150    0.7920 C   0  0  1  0  0  0  0  0  0  0  0  0
   -1.6000    4.3170    0.3450 H   0  0  0  0  0  0  0  0  0  0  0  0
   -3.2040    2.3800   -0.2800 C   0  0  0  0  0  0  0  0  0  0  0  0
    2.7630    1.7540   -0.7250 C   0  0  0  0  0  0  0  0  0  0  0  0
    2.5590    4.2440   -0.2020 H   0  0  0  0  0  0  0  0  0  0  0  0
    1.3200    6.9420    0.1040 C   0  0  0  0  0  0  0  0  0  0  0  0
    0.3450    8.0060    0.2010 N   0  0  0  0  0  0  0  0  0  0  0  0
   -0.8390    7.5810    0.7080 N   0  0  0  0  0  0  0  0  0  0  0  0
   -0.7520    6.3900    1.0710 N   0  0  0  0  0  0  0  0  0  0  0  0
    0.3740    9.1410   -0.7010 C   0  0  2  0  0  0  0  0  0  0  0  0
    1.5730    6.7410   -0.9380 H   0  0  0  0  0  0  0  0  0  0  0  0
    2.2180    7.2330    0.6620 H   0  0  0  0  0  0  0  0  0  0  0  0
    1.0480    5.6510    1.7740 H   0  0  0  0  0  0  0  0  0  0  0  0
    3.7810    1.2130   -0.8940 N   0  0  0  0  0  0  0  0  0  0  0  0
    1.3370   10.0710   -0.2060 O   0  0  0  0  0  0  0  0  0  0  0  0
   -0.8460   10.8920    0.3260 C   0  0  0  0  0  0  0  0  0  0  0  0
   -0.9360    9.9020   -0.8080 C   0  0  0  0  0  0  0  0  0  0  0  0
    1.0210   12.5300   -0.0670 C   0  0  0  0  0  0  0  0  0  0  0  0
   -0.9620   10.4430   -1.7590 H   0  0  0  0  0  0  0  0  0  0  0  0
   -1.4430   11.7860    0.1230 H   0  0  0  0  0  0  0  0  0  0  0  0
   -1.2280   10.4490    1.2530 H   0  0  0  0  0  0  0  0  0  0  0  0
   -1.8360    9.2820   -0.7610 H   0  0  0  0  0  0  0  0  0  0  0  0
    0.9610   11.1160    1.5120 H   0  0  0  0  0  0  0  0  0  0  0  0
    0.6510   11.1420    0.4620 C   0  0  2  0  0  0  0  0  0  0  0  0
    0.6830    8.7720   -1.6830 H   0  0  0  0  0  0  0  0  0  0  0  0
   -3.3640    3.3300    0.2360 H   0  0  0  0  0  0  0  0  0  0  0  0
   -3.2630    2.5140   -1.3640 H   0  0  0  0  0  0  0  0  0  0  0  0
   -4.0210    1.7190    0.0280 H   0  0  0  0  0  0  0  0  0  0  0  0
   -1.9830    1.7430    0.0840 O   0  0  0  0  0  0  0  0  0  0  0  0
    0.3660   13.5190    0.5840 O   0  0  0  0  0  0  0  0  0  0  0  0
    1.8160   12.8050   -0.9500 O   0  0  0  0  0  0  0  0  0  0  0  0
    0.6910   14.3430    0.1630 H   0  0  0  0  0  0  0  0  0  0  0  0
  1  5  1  0  0  0  0
  2  1  1  0  0  0  0
  3  2  2  0  0  0  0
  4  2  1  1  0  0  0
  4 10  5  0  0  0  0
  6  4  5  0  0  0  0
  6  7  5  0  0  0  0
  6 39  1  1  0  0  0
  7 12  1  0  0  0  0
  8  7  5  1  0  0  0
  8 11  1  0  0  0  0
  9  8  5  0  0  0  0
  9 15  1  0  0  0  0
 10  9  5  0  0  0  0
 10 14  1  1  0  0  0
 11 19  1  0  0  0  0
 11 23  1  1  0  0  0
 13 36  1  0  0  0  0
 13 37  1  0  0  0  0
 13 38  1  0  0  0  0
 13 39  1  0  0  0  0
 14 24  3  0  0  0  0
 16 11  1  0  0  0  0
 16 21  1  0  0  0  0
 16 22  1  0  0  0  0
 17 16  1  0  0  0  0
 18 17  1  0  0  0  0
 19 18  2  0  0  0  0
 20 17  1  0  0  0  0
 20 27  1  0  0  0  0
 20 35  1  6  0  0  0
 25 20  1  0  0  0  0
 26 34  1  0  0  0  0
 26 31  1  0  0  0  0
 27 26  1  0  0  0  0
 27 32  1  0  0  0  0
 28 34  1  0  0  0  0
 28 41  2  0  0  0  0
 29 27  1  0  0  0  0
 30 26  1  0  0  0  0
 34 25  1  0  0  0  0
 34 33  1  1  0  0  0
 40 28  1  0  0  0  0
 42 40  1  0  0  0  0
M  END
