33

O          1.18400        0.10600        0.12200
C         -0.03800        0.68700        0.18200
O         -1.04300        0.01000        0.33800
C         -0.03200        2.17600        0.03200
H          1.91000        0.76500        0.08200
C         -1.19200        2.76500       -0.28400
C         -1.27700        4.10500       -0.34000
C         -0.19800        4.91300       -0.16300
C          1.02000        4.30400        0.01400
C          1.06500        2.95000        0.20100
C         -0.52900        6.40800       -0.08300
H         -2.26300        4.52400       -0.53500
F         -2.31800        2.05800       -0.51600
O          2.25500        2.34500        0.60000
C          2.35600        5.03100       -0.13900
C          2.88800        5.83200        1.03600
H          3.71600        5.30400        1.51800
H          3.29200        6.78500        0.67100
H          2.12900        6.03900        1.79200
H          3.14000        4.32000       -0.43400
H          2.29100        5.66500       -1.03400
H          2.64900        2.83500        1.35100
C          0.47600        7.52500       -0.00200
N         -0.35900        8.61000       -0.43500
N         -1.40100        8.17600       -1.19600
N         -1.42800        6.90900       -1.16300
C         -0.11300        9.92300       -0.13800
H          1.29100        7.46300       -0.72500
H          0.85600        7.71000        1.00500
H         -1.12500        6.48300        0.84400
O         -1.04500       10.78100       -0.59300
O          0.83700       10.34500        0.50300
H         -0.72900       11.64900       -0.27100
