42

O          1.12600        0.71300       -0.02300
C          0.00700        1.42900        0.21200
O         -1.06000        0.88000        0.44700
C          0.16500        2.91700        0.12500
H          1.89600        1.20000       -0.35600
C         -0.98000        3.60700       -0.01400
C         -0.97800        4.94400       -0.13900
C          0.18600        5.67200       -0.12800
C          1.33800        4.96500        0.04900
C          1.32100        3.61000        0.17300
C          0.11500        7.19900       -0.39500
O         -2.20900        5.56500       -0.32700
H         -1.93000        3.07000       -0.04600
H          2.26500        3.08800        0.31500
C          2.62200        5.59300        0.06200
C          1.12300        8.31500       -0.01000
C          0.32100        9.59100       -0.38800
N         -1.09200        9.16100       -0.23400
N         -1.06100        7.81900        0.23600
C          0.56600       10.95900        0.32000
H         -1.89300        7.29500       -0.06500
H         -1.58500        9.74100        0.44700
H          1.36800        8.29000        1.05900
H          0.49900        9.75400       -1.46100
H          2.04800        8.25900       -0.59300
H         -0.00200        7.25400       -1.49200
N          3.68900        6.04700        0.06400
H         -2.96500        4.97900       -0.14100
O          1.74300       11.67100       -0.13100
C         -0.00900       13.26900        0.08400
C         -0.60200       11.90500        0.00700
C          2.28100       14.18100        0.14100
H         -1.44500       11.78800        0.69300
H         -0.56000       13.99700       -0.52100
H         -0.02000       13.62400        1.12200
H         -0.96700       11.74400       -1.01600
H          1.44400       13.13800       -1.51200
C          1.40500       13.04600       -0.41900
H          0.66400       10.82000        1.40300
O          1.72700       15.40100       -0.07900
O          3.34900       14.09100        0.72000
H          2.33500       16.03600        0.35300
