
 OpenBabel11042013083D

 42 44  0  0  1  0  0  0  0  0999 V2000
    1.1260    0.7130   -0.0230 O   0  0  0  0  0  0  0  0  0  0  0  0
    0.0070    1.4290    0.2120 C   0  0  0  0  0  0  0  0  0  0  0  0
   -1.0600    0.8800    0.4470 O   0  0  0  0  0  0  0  0  0  0  0  0
    0.1650    2.9170    0.1250 C   0  0  1  0  0  0  0  0  0  0  0  0
    1.8960    1.2000   -0.3560 H   0  0  0  0  0  0  0  0  0  0  0  0
   -0.9800    3.6070   -0.0140 C   0  0  0  0  0  0  0  0  0  0  0  0
   -0.9780    4.9440   -0.1390 C   0  0  1  0  0  0  0  0  0  0  0  0
    0.1860    5.6720   -0.1280 C   0  0  1  0  0  0  0  0  0  0  0  0
    1.3380    4.9650    0.0490 C   0  0  1  0  0  0  0  0  0  0  0  0
    1.3210    3.6100    0.1730 C   0  0  0  0  0  0  0  0  0  0  0  0
    0.1150    7.1990   -0.3950 C   0  0  2  0  0  0  0  0  0  0  0  0
   -2.2090    5.5650   -0.3270 O   0  0  0  0  0  0  0  0  0  0  0  0
   -1.9300    3.0700   -0.0460 H   0  0  0  0  0  0  0  0  0  0  0  0
    2.2650    3.0880    0.3150 H   0  0  0  0  0  0  0  0  0  0  0  0
    2.6220    5.5930    0.0620 C   0  0  0  0  0  0  0  0  0  0  0  0
    1.1230    8.3150   -0.0100 C   0  0  0  0  0  0  0  0  0  0  0  0
    0.3210    9.5910   -0.3880 C   0  0  1  0  0  0  0  0  0  0  0  0
   -1.0920    9.1610   -0.2340 N   0  0  0  0  0  0  0  0  0  0  0  0
   -1.0610    7.8190    0.2360 N   0  0  0  0  0  0  0  0  0  0  0  0
    0.5660   10.9590    0.3200 C   0  0  1  0  0  0  0  0  0  0  0  0
   -1.8930    7.2950   -0.0650 H   0  0  0  0  0  0  0  0  0  0  0  0
   -1.5850    9.7410    0.4470 H   0  0  0  0  0  0  0  0  0  0  0  0
    1.3680    8.2900    1.0590 H   0  0  0  0  0  0  0  0  0  0  0  0
    0.4990    9.7540   -1.4610 H   0  0  0  0  0  0  0  0  0  0  0  0
    2.0480    8.2590   -0.5930 H   0  0  0  0  0  0  0  0  0  0  0  0
   -0.0020    7.2540   -1.4920 H   0  0  0  0  0  0  0  0  0  0  0  0
    3.6890    6.0470    0.0640 N   0  0  0  0  0  0  0  0  0  0  0  0
   -2.9650    4.9790   -0.1410 H   0  0  0  0  0  0  0  0  0  0  0  0
    1.7430   11.6710   -0.1310 O   0  0  0  0  0  0  0  0  0  0  0  0
   -0.0090   13.2690    0.0840 C   0  0  0  0  0  0  0  0  0  0  0  0
   -0.6020   11.9050    0.0070 C   0  0  0  0  0  0  0  0  0  0  0  0
    2.2810   14.1810    0.1410 C   0  0  0  0  0  0  0  0  0  0  0  0
   -1.4450   11.7880    0.6930 H   0  0  0  0  0  0  0  0  0  0  0  0
   -0.5600   13.9970   -0.5210 H   0  0  0  0  0  0  0  0  0  0  0  0
   -0.0200   13.6240    1.1220 H   0  0  0  0  0  0  0  0  0  0  0  0
   -0.9670   11.7440   -1.0160 H   0  0  0  0  0  0  0  0  0  0  0  0
    1.4440   13.1380   -1.5120 H   0  0  0  0  0  0  0  0  0  0  0  0
    1.4050   13.0460   -0.4190 C   0  0  1  0  0  0  0  0  0  0  0  0
    0.6640   10.8200    1.4030 H   0  0  0  0  0  0  0  0  0  0  0  0
    1.7270   15.4010   -0.0790 O   0  0  0  0  0  0  0  0  0  0  0  0
    3.3490   14.0910    0.7200 O   0  0  0  0  0  0  0  0  0  0  0  0
    2.3350   16.0360    0.3530 H   0  0  0  0  0  0  0  0  0  0  0  0
  1  5  1  0  0  0  0
  2  1  1  0  0  0  0
  3  2  2  0  0  0  0
  4  2  1  1  0  0  0
  4 10  5  0  0  0  0
  6  4  5  0  0  0  0
  6  7  5  0  0  0  0
  6 13  1  0  0  0  0
  7 12  1  6  0  0  0
  8  7  5  0  0  0  0
  8 11  1  6  0  0  0
  9  8  5  0  0  0  0
  9 15  1  6  0  0  0
 10  9  5  0  0  0  0
 10 14  1  0  0  0  0
 11 19  1  0  0  0  0
 11 26  1  6  0  0  0
 12 28  1  0  0  0  0
 15 27  3  0  0  0  0
 16 11  1  0  0  0  0
 16 23  1  0  0  0  0
 16 25  1  0  0  0  0
 17 16  1  0  0  0  0
 17 24  1  6  0  0  0
 18 17  1  0  0  0  0
 19 18  1  0  0  0  0
 20 17  1  0  0  0  0
 20 31  1  0  0  0  0
 20 39  1  1  0  0  0
 21 19  1  0  0  0  0
 22 18  1  0  0  0  0
 29 20  1  0  0  0  0
 30 38  1  0  0  0  0
 30 35  1  0  0  0  0
 31 30  1  0  0  0  0
 31 36  1  0  0  0  0
 32 38  1  0  0  0  0
 32 41  2  0  0  0  0
 33 31  1  0  0  0  0
 34 30  1  0  0  0  0
 38 29  1  0  0  0  0
 38 37  1  6  0  0  0
 40 32  1  0  0  0  0
 42 40  1  0  0  0  0
M  END
