43

O          2.72200        3.31700       -0.21400
C          1.69500        4.10200       -0.59500
O          0.65200        3.63700       -1.02900
C          1.92800        5.56700       -0.38800
H          3.42200        3.76900        0.28500
C          0.82900        6.31600       -0.18300
C          0.90500        7.65200        0.02600
C          2.13200        8.26300        0.02000
C          3.22800        7.49600       -0.20200
C          3.13500        6.16600       -0.40600
C          2.25200        9.76700        0.31500
C         -1.51200        7.83300        0.17800
H         -0.13400        5.81100       -0.18000
H          4.04400        5.60300       -0.59100
H          4.21800        7.94700       -0.20900
H         -1.67500        7.38400       -0.80800
H         -1.64800        7.09500        0.97500
H         -2.26200        8.61700        0.31400
O         -0.22300        8.43500        0.26900
C          3.53500       10.58500        0.06300
C          3.01600       11.99300        0.40700
N          1.66300       11.99100       -0.20600
N          1.29700       10.60300       -0.43300
C          3.80200       13.28600        0.15800
H          0.35400       10.38800       -0.08800
H          1.71800       12.46600       -1.11200
H          3.86800       10.51700       -0.98200
H          2.86100       11.99600        1.49800
H          4.35700       10.27900        0.71700
H          2.02400        9.85300        1.39000
C          3.12500       14.46400        0.11400
C          3.73400       15.65900       -0.03900
C          5.08100       15.70700       -0.14300
C          5.77100       14.53900       -0.12500
C          5.14200       13.35300        0.01400
C          5.92400       16.93400       -0.26700
Cl         2.68000       17.04300       -0.08100
H          2.04200       14.45600        0.23100
H          5.74600       12.44400        0.04100
H          6.85800       14.54300       -0.21100
O          5.28800       18.10300       -0.08000
O          7.12900       16.94300       -0.47800
H          5.98100       18.78500       -0.18200
