
 OpenBabel11042013083D

 25 25  0  0  1  0  0  0  0  0999 V2000
    0.6910    0.2360    0.1330 O   0  0  0  0  0  0  0  0  0  0  0  0
   -0.3240    1.1040   -0.0140 C   0  0  0  0  0  0  0  0  0  0  0  0
   -1.4740    0.6830   -0.0920 O   0  0  0  0  0  0  0  0  0  0  0  0
    0.0170    2.5740   -0.0230 C   0  0  1  0  0  0  0  0  0  0  0  0
    1.5780    0.6390    0.1620 H   0  0  0  0  0  0  0  0  0  0  0  0
   -1.0970    3.3370    0.0020 C   0  0  0  0  0  0  0  0  0  0  0  0
   -1.0290    4.6710   -0.0170 C   0  0  2  0  0  0  0  0  0  0  0  0
    0.1550    5.3250   -0.0130 C   0  0  1  0  0  0  0  0  0  0  0  0
    1.3030    4.5690    0.0040 C   0  0  2  0  0  0  0  0  0  0  0  0
    1.2290    3.1960   -0.0490 C   0  0  2  0  0  0  0  0  0  0  0  0
    0.2110    6.8020   -0.0720 C   0  0  0  0  0  0  0  0  0  0  0  0
   -2.2070    5.3320   -0.0300 F   0  0  0  0  0  0  0  0  0  0  0  0
   -2.0930    2.8990    0.0240 H   0  0  0  0  0  0  0  0  0  0  0  0
    2.8410    2.1860   -0.2200 Br  0  0  0  0  0  0  0  0  0  0  0  0
    2.6550    5.2730    0.1350 C   0  0  0  0  0  0  0  0  0  0  0  0
   -0.7900    7.6970    0.0180 C   0  0  0  0  0  0  0  0  0  0  0  0
   -0.4780    9.1350   -0.0500 C   0  0  0  0  0  0  0  0  0  0  0  0
   -1.8330    7.4460    0.1460 H   0  0  0  0  0  0  0  0  0  0  0  0
    1.1980    7.2330   -0.2370 H   0  0  0  0  0  0  0  0  0  0  0  0
    2.9950    5.6570   -0.8320 H   0  0  0  0  0  0  0  0  0  0  0  0
    3.4420    4.6430    0.5540 H   0  0  0  0  0  0  0  0  0  0  0  0
    2.6000    6.0970    0.8560 H   0  0  0  0  0  0  0  0  0  0  0  0
   -1.6020    9.8600    0.0060 O   0  0  0  0  0  0  0  0  0  0  0  0
    0.6230    9.6450   -0.1350 O   0  0  0  0  0  0  0  0  0  0  0  0
   -1.2910   10.7890   -0.0340 H   0  0  0  0  0  0  0  0  0  0  0  0
  1  5  1  0  0  0  0
  2  1  1  0  0  0  0
  3  2  2  0  0  0  0
  4  2  1  1  0  0  0
  4 10  5  0  0  0  0
  6  4  5  0  0  0  0
  6  7  5  0  0  0  0
  6 13  1  0  0  0  0
  7 12  1  1  0  0  0
  8  7  5  0  0  0  0
  8 11  1  6  0  0  0
  9  8  5  0  0  0  0
  9 15  1  1  0  0  0
 10  9  5  0  0  0  0
 10 14  1  6  0  0  0
 11 19  1  0  0  0  0
 15 20  1  0  0  0  0
 15 21  1  0  0  0  0
 15 22  1  0  0  0  0
 16 11  2  0  0  0  0
 16 18  1  0  0  0  0
 17 16  1  0  0  0  0
 17 24  2  0  0  0  0
 23 17  1  0  0  0  0
 25 23  1  0  0  0  0
M  END
