25

O          0.69100        0.23600        0.13300
C         -0.32400        1.10400       -0.01400
O         -1.47400        0.68300       -0.09200
C          0.01700        2.57400       -0.02300
H          1.57800        0.63900        0.16200
C         -1.09700        3.33700        0.00200
C         -1.02900        4.67100       -0.01700
C          0.15500        5.32500       -0.01300
C          1.30300        4.56900        0.00400
C          1.22900        3.19600       -0.04900
C          0.21100        6.80200       -0.07200
F         -2.20700        5.33200       -0.03000
H         -2.09300        2.89900        0.02400
Br         2.84100        2.18600       -0.22000
C          2.65500        5.27300        0.13500
C         -0.79000        7.69700        0.01800
C         -0.47800        9.13500       -0.05000
H         -1.83300        7.44600        0.14600
H          1.19800        7.23300       -0.23700
H          2.99500        5.65700       -0.83200
H          3.44200        4.64300        0.55400
H          2.60000        6.09700        0.85600
O         -1.60200        9.86000        0.00600
O          0.62300        9.64500       -0.13500
H         -1.29100       10.78900       -0.03400
