
 OpenBabel11042013083D

 44 46  0  0  1  0  0  0  0  0999 V2000
    0.8660   -0.3310   -0.7610 O   0  0  0  0  0  0  0  0  0  0  0  0
   -0.1620    0.2520   -0.1110 C   0  0  0  0  0  0  0  0  0  0  0  0
   -1.1250   -0.4030    0.2600 O   0  0  0  0  0  0  0  0  0  0  0  0
   -0.0800    1.7470   -0.0150 C   0  0  2  0  0  0  0  0  0  0  0  0
    1.4970    0.2920   -1.1530 H   0  0  0  0  0  0  0  0  0  0  0  0
   -1.3130    2.3120    0.0010 C   0  0  0  0  0  0  0  0  0  0  0  0
   -1.4710    3.6430   -0.0750 C   0  0  0  0  0  0  0  0  0  0  0  0
   -0.3910    4.4400   -0.1700 C   0  0  1  0  0  0  0  0  0  0  0  0
    0.8300    3.8790   -0.0730 C   0  0  0  0  0  0  0  0  0  0  0  0
    1.0300    2.5410   -0.0070 C   0  0  2  0  0  0  0  0  0  0  0  0
   -0.5610    5.8900   -0.5150 C   0  0  2  0  0  0  0  0  0  0  0  0
   -2.4760    4.0620   -0.1200 H   0  0  0  0  0  0  0  0  0  0  0  0
   -2.2180    1.7060    0.0190 H   0  0  0  0  0  0  0  0  0  0  0  0
    2.5050    2.1500   -0.0160 C   0  0  0  0  0  0  0  0  0  0  0  0
    1.7090    4.5180   -0.1180 H   0  0  0  0  0  0  0  0  0  0  0  0
    2.9890    1.0650    0.9320 C   0  0  0  0  0  0  0  0  0  0  0  0
    3.5120    1.5100    1.7840 H   0  0  0  0  0  0  0  0  0  0  0  0
    2.1920    0.4320    1.3230 H   0  0  0  0  0  0  0  0  0  0  0  0
    3.7140    0.4310    0.4080 H   0  0  0  0  0  0  0  0  0  0  0  0
    3.1300    3.0280    0.2090 H   0  0  0  0  0  0  0  0  0  0  0  0
    2.7730    1.8970   -1.0500 H   0  0  0  0  0  0  0  0  0  0  0  0
    0.6660    6.7610   -0.4460 C   0  0  0  0  0  0  0  0  0  0  0  0
   -0.0150    8.0080   -0.3230 N   0  0  0  0  0  0  0  0  0  0  0  0
   -1.1900    7.8520    0.3670 N   0  0  0  0  0  0  0  0  0  0  0  0
   -1.4930    6.6290    0.3520 N   0  0  0  0  0  0  0  0  0  0  0  0
    0.7570    9.1580    0.0200 C   0  0  0  0  0  0  0  0  0  0  0  0
    1.2760    6.5830    0.4490 H   0  0  0  0  0  0  0  0  0  0  0  0
    1.2920    6.6880   -1.3420 H   0  0  0  0  0  0  0  0  0  0  0  0
   -0.9650    5.9310   -1.5380 H   0  0  0  0  0  0  0  0  0  0  0  0
    1.0910   10.2820    0.2390 C   0  0  0  0  0  0  0  0  0  0  0  0
    0.9150   11.6750    0.2880 C   0  0  2  0  0  0  0  0  0  0  0  0
   -0.3690   12.1050    0.3010 C   0  0  0  0  0  0  0  0  0  0  0  0
   -0.6450   13.4130    0.2210 C   0  0  0  0  0  0  0  0  0  0  0  0
    0.3720   14.2970    0.1270 C   0  0  1  0  0  0  0  0  0  0  0  0
    1.6520   13.8660    0.1420 C   0  0  0  0  0  0  0  0  0  0  0  0
    1.9260   12.5480    0.2210 C   0  0  0  0  0  0  0  0  0  0  0  0
    0.1150   15.7450   -0.0290 C   0  0  0  0  0  0  0  0  0  0  0  0
   -1.6870   13.7210    0.2070 H   0  0  0  0  0  0  0  0  0  0  0  0
   -1.1920   11.3890    0.3460 H   0  0  0  0  0  0  0  0  0  0  0  0
    2.9560   12.2020    0.2030 H   0  0  0  0  0  0  0  0  0  0  0  0
    2.4750   14.5710    0.0670 H   0  0  0  0  0  0  0  0  0  0  0  0
   -1.1930   16.0600   -0.0040 O   0  0  0  0  0  0  0  0  0  0  0  0
    0.9610   16.6090   -0.1930 O   0  0  0  0  0  0  0  0  0  0  0  0
   -1.1980   17.0280   -0.1430 H   0  0  0  0  0  0  0  0  0  0  0  0
  1  5  1  0  0  0  0
  2  1  1  0  0  0  0
  3  2  2  0  0  0  0
  4  2  1  6  0  0  0
  4 10  5  0  0  0  0
  6  4  5  0  0  0  0
  6  7  5  0  0  0  0
  6 13  1  0  0  0  0
  7 12  1  0  0  0  0
  8  7  5  6  0  0  0
  8 11  1  0  0  0  0
  9  8  5  0  0  0  0
  9 15  1  0  0  0  0
 10  9  5  0  0  0  0
 10 14  1  6  0  0  0
 11 25  1  0  0  0  0
 11 29  1  6  0  0  0
 14 20  1  0  0  0  0
 14 21  1  0  0  0  0
 16 17  1  0  0  0  0
 16 18  1  0  0  0  0
 16 19  1  0  0  0  0
 16 14  1  0  0  0  0
 22 11  1  0  0  0  0
 22 27  1  0  0  0  0
 22 28  1  0  0  0  0
 23 22  1  0  0  0  0
 24 23  1  0  0  0  0
 25 24  2  0  0  0  0
 26 23  1  0  0  0  0
 30 26  3  0  0  0  0
 31 30  1  6  0  0  0
 31 36  5  0  0  0  0
 32 31  5  0  0  0  0
 32 33  5  0  0  0  0
 32 39  1  0  0  0  0
 33 38  1  0  0  0  0
 34 33  5  0  0  0  0
 34 37  1  6  0  0  0
 35 34  5  0  0  0  0
 35 41  1  0  0  0  0
 36 35  5  0  0  0  0
 36 40  1  0  0  0  0
 37 43  2  0  0  0  0
 42 37  1  0  0  0  0
 44 42  1  0  0  0  0
M  END
