
 OpenBabel11042013083D

 28 28  0  0  1  0  0  0  0  0999 V2000
    0.4030    0.6930   -1.3910 O   0  0  0  0  0  0  0  0  0  0  0  0
   -0.1860    1.2050   -0.2960 C   0  0  0  0  0  0  0  0  0  0  0  0
   -0.7660    0.4850    0.4970 O   0  0  0  0  0  0  0  0  0  0  0  0
    0.0040    2.6740   -0.1830 C   0  0  1  0  0  0  0  0  0  0  0  0
    0.2520   -0.2710   -1.3020 H   0  0  0  0  0  0  0  0  0  0  0  0
   -1.1130    3.4350   -0.1230 C   0  0  1  0  0  0  0  0  0  0  0  0
   -0.9810    4.7730   -0.0030 C   0  0  0  0  0  0  0  0  0  0  0  0
    0.2280    5.3800    0.0210 C   0  0  2  0  0  0  0  0  0  0  0  0
    1.3500    4.5960   -0.0640 C   0  0  1  0  0  0  0  0  0  0  0  0
    1.2550    3.2260   -0.1310 C   0  0  2  0  0  0  0  0  0  0  0  0
    0.2930    6.8420    0.1960 C   0  0  0  0  0  0  0  0  0  0  0  0
   -1.8880    5.3640    0.0730 H   0  0  0  0  0  0  0  0  0  0  0  0
   -2.8790    2.7570   -0.2200 Br  0  0  0  0  0  0  0  0  0  0  0  0
    2.5100    2.3290   -0.1760 C   0  0  0  0  0  0  0  0  0  0  0  0
    3.0760    5.4410   -0.1420 Br  0  0  0  0  0  0  0  0  0  0  0  0
    2.6400    1.2460    0.9000 C   0  0  0  0  0  0  0  0  0  0  0  0
    3.2050    0.3980    0.4940 H   0  0  0  0  0  0  0  0  0  0  0  0
    1.6940    0.8610    1.2780 H   0  0  0  0  0  0  0  0  0  0  0  0
    3.1960    1.6260    1.7640 H   0  0  0  0  0  0  0  0  0  0  0  0
    3.4380    2.8970   -0.0920 H   0  0  0  0  0  0  0  0  0  0  0  0
    2.5740    1.8780   -1.1730 H   0  0  0  0  0  0  0  0  0  0  0  0
   -0.6550    7.7650   -0.0420 C   0  0  0  0  0  0  0  0  0  0  0  0
   -0.3370    9.1770    0.2290 C   0  0  0  0  0  0  0  0  0  0  0  0
   -1.6430    7.5490   -0.4230 H   0  0  0  0  0  0  0  0  0  0  0  0
    1.2320    7.2210    0.5990 H   0  0  0  0  0  0  0  0  0  0  0  0
   -1.4010    9.9550   -0.0190 O   0  0  0  0  0  0  0  0  0  0  0  0
    0.7170    9.6350    0.6240 O   0  0  0  0  0  0  0  0  0  0  0  0
   -1.0790   10.8570    0.1950 H   0  0  0  0  0  0  0  0  0  0  0  0
  1  5  1  0  0  0  0
  2  1  1  0  0  0  0
  3  2  2  0  0  0  0
  4  2  1  1  0  0  0
  4 10  5  0  0  0  0
  6  4  5  0  0  0  0
  6  7  5  0  0  0  0
  6 13  1  6  0  0  0
  7 12  1  0  0  0  0
  8  7  5  0  0  0  0
  8 11  1  1  0  0  0
  9  8  5  0  0  0  0
  9 15  1  6  0  0  0
 10  9  5  0  0  0  0
 10 14  1  6  0  0  0
 11 25  1  0  0  0  0
 14 20  1  0  0  0  0
 14 21  1  0  0  0  0
 16 17  1  0  0  0  0
 16 18  1  0  0  0  0
 16 19  1  0  0  0  0
 16 14  1  0  0  0  0
 22 11  2  0  0  0  0
 22 24  1  0  0  0  0
 23 22  1  0  0  0  0
 23 27  2  0  0  0  0
 26 23  1  0  0  0  0
 28 26  1  0  0  0  0
M  END
