
 OpenBabel11042013083D

 23 23  0  0  1  0  0  0  0  0999 V2000
    1.2330    0.6320    0.0470 O   0  0  0  0  0  0  0  0  0  0  0  0
   -0.0380    1.0860    0.1610 C   0  0  0  0  0  0  0  0  0  0  0  0
   -0.9770    0.3110    0.2800 O   0  0  0  0  0  0  0  0  0  0  0  0
   -0.1580    2.5760    0.1690 C   0  0  1  0  0  0  0  0  0  0  0  0
    1.9080    1.3040   -0.1580 H   0  0  0  0  0  0  0  0  0  0  0  0
   -1.2530    3.1670   -0.3760 C   0  0  1  0  0  0  0  0  0  0  0  0
   -1.4150    4.5080   -0.2670 C   0  0  2  0  0  0  0  0  0  0  0  0
   -0.4640    5.2960    0.3050 C   0  0  2  0  0  0  0  0  0  0  0  0
    0.6640    4.6900    0.7680 C   0  0  2  0  0  0  0  0  0  0  0  0
    0.7990    3.3530    0.7310 C   0  0  0  0  0  0  0  0  0  0  0  0
   -0.6180    6.6640    0.4390 N   0  0  0  0  0  0  0  0  0  0  0  0
   -2.8880    5.2170   -0.8800 Cl  0  0  0  0  0  0  0  0  0  0  0  0
   -2.1650    2.3870   -1.0700 O   0  0  0  0  0  0  0  0  0  0  0  0
    1.6880    2.9040    1.1860 H   0  0  0  0  0  0  0  0  0  0  0  0
    1.7330    5.4670    1.3150 N   0  0  0  0  0  0  0  0  0  0  0  0
   -2.6350    2.8950   -1.7550 H   0  0  0  0  0  0  0  0  0  0  0  0
    2.6730    5.0960    1.1890 H   0  0  0  0  0  0  0  0  0  0  0  0
    1.6910    6.4540    1.0850 H   0  0  0  0  0  0  0  0  0  0  0  0
   -0.2080    7.3280   -0.5450 N   0  0  0  0  0  0  0  0  0  0  0  0
   -0.2410    8.6610   -0.2650 C   0  0  0  0  0  0  0  0  0  0  0  0
   -1.5000    9.1700   -0.1650 O   0  0  0  0  0  0  0  0  0  0  0  0
    0.7160    9.4220   -0.1420 O   0  0  0  0  0  0  0  0  0  0  0  0
   -1.3480   10.1170    0.0260 H   0  0  0  0  0  0  0  0  0  0  0  0
  1  5  1  0  0  0  0
  2  1  1  0  0  0  0
  3  2  2  0  0  0  0
  4  2  1  1  0  0  0
  4 10  5  0  0  0  0
  6  4  5  0  0  0  0
  6  7  5  0  0  0  0
  6 13  1  6  0  0  0
  7 12  1  1  0  0  0
  8  7  5  0  0  0  0
  8 11  1  1  0  0  0
  9  8  5  0  0  0  0
  9 15  1  1  0  0  0
 10  9  5  0  0  0  0
 10 14  1  0  0  0  0
 13 16  1  0  0  0  0
 15 17  1  0  0  0  0
 15 18  1  0  0  0  0
 19 11  2  0  0  0  0
 20 19  1  0  0  0  0
 20 22  2  0  0  0  0
 21 20  1  0  0  0  0
 23 21  1  0  0  0  0
M  END
