
 OpenBabel11042013083D

 30 30  0  0  1  0  0  0  0  0999 V2000
    1.5550    0.2870    0.0480 O   0  0  0  0  0  0  0  0  0  0  0  0
    0.2950    0.7720   -0.0370 C   0  0  0  0  0  0  0  0  0  0  0  0
   -0.6340   -0.0120   -0.1450 O   0  0  0  0  0  0  0  0  0  0  0  0
    0.1490    2.2790    0.0500 C   0  0  2  0  0  0  0  0  0  0  0  0
    2.2550    0.8920    0.3360 H   0  0  0  0  0  0  0  0  0  0  0  0
   -1.0800    2.8700    0.2050 C   0  0  1  0  0  0  0  0  0  0  0  0
   -1.1270    4.2190    0.3430 C   0  0  0  0  0  0  0  0  0  0  0  0
   -0.0300    4.9940    0.2540 C   0  0  1  0  0  0  0  0  0  0  0  0
    1.1640    4.4090    0.0300 C   0  0  1  0  0  0  0  0  0  0  0  0
    1.2470    3.0680   -0.0520 C   0  0  0  0  0  0  0  0  0  0  0  0
   -0.1470    6.4090    0.3830 C   0  0  0  0  0  0  0  0  0  0  0  0
   -2.0770    4.7220    0.5110 H   0  0  0  0  0  0  0  0  0  0  0  0
   -2.3980    2.0880    0.1460 C   0  0  0  0  0  0  0  0  0  0  0  0
    2.2310    2.6650   -0.2590 H   0  0  0  0  0  0  0  0  0  0  0  0
    2.3640    5.1700   -0.1520 N   0  0  0  0  0  0  0  0  0  0  0  0
   -3.6630    2.8860   -0.1850 C   0  0  0  0  0  0  0  0  0  0  0  0
   -3.5190    3.5000   -1.0820 H   0  0  0  0  0  0  0  0  0  0  0  0
   -3.9600    3.5350    0.6440 H   0  0  0  0  0  0  0  0  0  0  0  0
   -4.4960    2.2040   -0.3850 H   0  0  0  0  0  0  0  0  0  0  0  0
   -2.3350    1.3600   -0.6700 H   0  0  0  0  0  0  0  0  0  0  0  0
   -2.5500    1.5440    1.0840 H   0  0  0  0  0  0  0  0  0  0  0  0
   -0.0730    7.6070    0.4790 C   0  0  0  0  0  0  0  0  0  0  0  0
    0.1690    8.9150    0.5690 N   0  0  0  0  0  0  0  0  0  0  0  0
   -0.7590    9.5830    0.0790 N   0  0  0  0  0  0  0  0  0  0  0  0
   -0.4300   10.9130    0.0250 C   0  0  0  0  0  0  0  0  0  0  0  0
    3.1280    4.8950    0.4600 H   0  0  0  0  0  0  0  0  0  0  0  0
    2.2470    6.1800   -0.1030 H   0  0  0  0  0  0  0  0  0  0  0  0
   -1.5300   11.6940   -0.0530 O   0  0  0  0  0  0  0  0  0  0  0  0
    0.6760   11.4370    0.0140 O   0  0  0  0  0  0  0  0  0  0  0  0
   -1.1420   12.5910   -0.1020 H   0  0  0  0  0  0  0  0  0  0  0  0
  1  5  1  0  0  0  0
  2  1  1  0  0  0  0
  3  2  2  0  0  0  0
  4  2  1  6  0  0  0
  4 10  5  0  0  0  0
  6  4  5  0  0  0  0
  6  7  5  0  0  0  0
  6 13  1  6  0  0  0
  7 12  1  0  0  0  0
  8  7  5  0  0  0  0
  8 11  1  6  0  0  0
  9  8  5  0  0  0  0
  9 15  1  6  0  0  0
 10  9  5  0  0  0  0
 10 14  1  0  0  0  0
 13 20  1  0  0  0  0
 13 21  1  0  0  0  0
 15 26  1  0  0  0  0
 15 27  1  0  0  0  0
 16 17  1  0  0  0  0
 16 18  1  0  0  0  0
 16 19  1  0  0  0  0
 16 13  1  0  0  0  0
 22 11  3  0  0  0  0
 23 22  1  0  0  0  0
 24 23  2  0  0  0  0
 25 24  1  0  0  0  0
 25 29  2  0  0  0  0
 28 25  1  0  0  0  0
 30 28  1  0  0  0  0
M  END
