
 OpenBabel11042013083D

 35 36  0  0  1  0  0  0  0  0999 V2000
    1.3680    0.5970   -0.0990 O   0  0  0  0  0  0  0  0  0  0  0  0
    0.1580    1.1990   -0.1510 C   0  0  0  0  0  0  0  0  0  0  0  0
   -0.8370    0.4870   -0.1820 O   0  0  0  0  0  0  0  0  0  0  0  0
    0.1480    2.7240   -0.1030 C   0  0  1  0  0  0  0  0  0  0  0  0
    2.1680    1.1360   -0.0340 H   0  0  0  0  0  0  0  0  0  0  0  0
   -1.0460    3.3820   -0.1160 C   0  0  1  0  0  0  0  0  0  0  0  0
   -1.0400    4.7390    0.0660 C   0  0  2  0  0  0  0  0  0  0  0  0
    0.1230    5.4870    0.1410 C   0  0  2  0  0  0  0  0  0  0  0  0
    1.2900    4.7820    0.0860 C   0  0  2  0  0  0  0  0  0  0  0  0
    1.2820    3.4400   -0.0090 C   0  0  0  0  0  0  0  0  0  0  0  0
    0.0460    7.0670    0.3140 C   0  0  1  0  0  0  0  0  0  0  0  0
   -2.2880    5.4020    0.2150 C   0  0  0  0  0  0  0  0  0  0  0  0
   -3.5260    2.8020   -0.0610 C   0  0  0  0  0  0  0  0  0  0  0  0
    2.2600    2.9780   -0.0160 H   0  0  0  0  0  0  0  0  0  0  0  0
    2.5570    5.3300    0.1810 O   0  0  0  0  0  0  0  0  0  0  0  0
   -3.2500    6.0360    0.3410 N   0  0  0  0  0  0  0  0  0  0  0  0
    2.6040    6.2350    0.5170 H   0  0  0  0  0  0  0  0  0  0  0  0
   -3.7330    2.5980    0.9920 H   0  0  0  0  0  0  0  0  0  0  0  0
   -4.0890    2.0800   -0.6620 H   0  0  0  0  0  0  0  0  0  0  0  0
   -3.9090    3.7720   -0.3640 H   0  0  0  0  0  0  0  0  0  0  0  0
   -2.1570    2.5950   -0.3460 O   0  0  0  0  0  0  0  0  0  0  0  0
    1.2400    8.0400    0.0470 C   0  0  0  0  0  0  0  0  0  0  0  0
    0.6200    9.3560   -0.4570 C   0  0  1  0  0  0  0  0  0  0  0  0
   -0.8020    9.1310   -0.2160 N   0  0  0  0  0  0  0  0  0  0  0  0
   -0.9840    7.7490   -0.5120 N   0  0  0  0  0  0  0  0  0  0  0  0
    1.0280   10.6710    0.2070 C   0  0  0  0  0  0  0  0  0  0  0  0
   -1.9330    7.5000   -0.2100 H   0  0  0  0  0  0  0  0  0  0  0  0
   -1.3660    9.7760   -0.7770 H   0  0  0  0  0  0  0  0  0  0  0  0
    1.8240    8.1950    0.9630 H   0  0  0  0  0  0  0  0  0  0  0  0
    0.8080    9.4710   -1.5320 H   0  0  0  0  0  0  0  0  0  0  0  0
    1.9030    7.6660   -0.7410 H   0  0  0  0  0  0  0  0  0  0  0  0
   -0.2200    7.2050    1.3740 H   0  0  0  0  0  0  0  0  0  0  0  0
    0.0680   11.6260    0.0970 O   0  0  0  0  0  0  0  0  0  0  0  0
    2.1100   10.9380    0.7030 O   0  0  0  0  0  0  0  0  0  0  0  0
    0.4330   12.4300    0.5200 H   0  0  0  0  0  0  0  0  0  0  0  0
  1  5  1  0  0  0  0
  2  1  1  0  0  0  0
  3  2  2  0  0  0  0
  4  2  1  1  0  0  0
  4 10  5  0  0  0  0
  6  4  5  0  0  0  0
  6  7  5  0  0  0  0
  6 21  1  6  0  0  0
  7 12  1  1  0  0  0
  8  7  5  0  0  0  0
  8 11  1  1  0  0  0
  9  8  5  0  0  0  0
  9 15  1  1  0  0  0
 10  9  5  0  0  0  0
 10 14  1  0  0  0  0
 11 25  1  0  0  0  0
 11 32  1  1  0  0  0
 12 16  3  0  0  0  0
 13 18  1  0  0  0  0
 13 19  1  0  0  0  0
 13 20  1  0  0  0  0
 13 21  1  0  0  0  0
 15 17  1  0  0  0  0
 22 11  1  0  0  0  0
 22 29  1  0  0  0  0
 22 31  1  0  0  0  0
 23 22  1  0  0  0  0
 23 30  1  6  0  0  0
 24 23  1  0  0  0  0
 25 24  1  0  0  0  0
 26 23  1  0  0  0  0
 26 34  2  0  0  0  0
 27 25  1  0  0  0  0
 28 24  1  0  0  0  0
 33 26  1  0  0  0  0
 35 33  1  0  0  0  0
M  END
