28

O          0.01400        0.20800        0.16200
C         -1.08100        0.99600        0.16000
O         -2.20600        0.51600        0.17100
C         -0.81700        2.47000        0.06000
H          0.84100        0.71500        0.28200
C         -1.88500        3.22900       -0.27400
C         -1.76600        4.56200       -0.42500
C         -0.57100        5.17400       -0.23800
C          0.48700        4.39900        0.10800
C          0.38900        3.05600        0.25500
N         -0.41000        6.53100       -0.45000
Cl        -3.18500        5.46600       -0.86900
H         -2.85700        2.76100       -0.43300
C          2.64800        2.44900       -0.18500
H          1.44200        4.89100        0.27400
N         -0.04300        7.19900        0.53900
C          0.22900        8.50900        0.24800
H          2.39900        2.35100       -1.24600
H          3.34200        1.64400        0.07600
H          3.14100        3.40200        0.02100
O          1.48000        2.27600        0.62200
C         -0.69100        9.47900        0.17700
C         -0.24900       10.84900       -0.09400
H         -1.74600        9.29300        0.32200
H          1.28300        8.73600        0.10600
O         -1.28400       11.69800       -0.01200
O          0.88200       11.22400       -0.34100
H         -0.89000       12.57900       -0.18300
