32

O          1.22400        0.69000       -0.00000
C          0.05200        1.21000       -0.00100
O         -1.19800        0.69800       -0.00000
C         -0.24900        2.25500        0.01100
H          2.48500        0.42500        0.00000
C         -0.20200        3.93100        0.01600
C         -1.06300        2.69000       -0.00000
C         -0.05100        4.79300       -0.00000
C          1.92800        4.01700        0.00100
C          1.08400        3.28000        0.00900
C         -0.21000        6.33300        0.00100
C         -2.51100        3.84100       -0.01000
N         -0.65700        2.59700       -0.01500
N          1.40300        2.27100        0.17400
C          1.91900        5.13200        0.00000
H          0.85000        3.17900       -0.18500
H          0.97800        3.24700       -0.03900
H         -1.54400        3.76100        0.00200
H         -1.50600        3.91900        0.00500
H         -1.58400        4.36200        0.00500
O         -1.17100        4.32000       -0.00200
H         -0.38900        3.77300       -0.00500
H         -0.33000        3.76800        0.00800
C          1.91900        5.13200        0.00000
H          1.70000        5.83300        0.00000
H          1.91900        5.13300        0.00000
H          1.85400        5.89100       -0.00000
H          0.95600        4.89700        0.00000
H          3.31500        5.38400       -0.00000
O         -1.68000        7.39700       -0.00000
O          1.20500        7.16200        0.00000
H         -1.81600        8.86200        0.00000
