40

O          1.32300        0.72900       -0.13900
C          0.15000        1.38700       -0.28700
O         -0.88400        0.77200       -0.46800
C          0.24300        2.87600       -0.18000
H          2.11800        1.28500       -0.02400
C         -0.91100        3.56500       -0.13100
C         -0.90400        4.90500        0.00800
C          0.24300        5.62900        0.10000
C          1.39900        4.92800        0.01100
C          1.39300        3.58100       -0.11900
C          0.16400        7.14400        0.37300
H         -1.88500        5.35900        0.06700
F         -2.11300        2.95300       -0.18200
F          2.58000        2.93400       -0.15400
H          2.35800        5.43300        0.08500
C          1.17700        8.22200       -0.09400
C          0.41300        9.51900        0.28300
N         -1.01000        9.12900        0.08800
N         -1.06400        7.73400       -0.18100
C          0.67700       10.91100       -0.39400
H         -1.88700        7.33400        0.27000
H         -1.41300        9.63200       -0.70700
H          2.12800        8.14000        0.44400
H          0.57200        9.66300        1.36200
H          1.37300        8.16000       -1.17200
H          0.10900        7.21300        1.47100
O          1.80200       11.65500        0.13200
C         -0.01100       13.20100       -0.05000
C         -0.53900       11.81400       -0.14000
C          2.21700       14.20900       -0.11600
H         -1.29900       11.72100       -0.92200
H         -0.05600       13.68200       -1.03400
H         -0.59800       13.81800        0.63900
H         -1.01200       11.57700        0.82100
H          1.46400       13.09500        1.52900
C          1.41300       13.01200        0.43600
H          0.84600       10.78700       -1.47000
O          1.61900       15.39300        0.18900
O          3.24700       14.19500       -0.76700
H          2.14900       16.08200       -0.26300
