
 OpenBabel02032115573D

 37 38  0  0  1  0  0  0  0  0999 V2000
    1.9030   -0.2010    0.4620 O   0  0  0  0  0  0  0  0  0  0  0  0
    0.7800    0.4310    0.7070 C   0  0  0  0  0  0  0  0  0  0  0  0
   -0.0750   -0.2330    1.2610 O   0  0  0  0  0  0  0  0  0  0  0  0
    0.4550    1.7970    0.3830 C   0  0  2  0  0  0  0  0  0  0  0  0
    2.5030    0.4170    0.0000 H   0  0  0  0  0  0  0  0  0  0  0  0
   -0.7220    2.3060    0.7750 C   0  0  0  0  0  0  0  0  0  0  0  0
   -1.0580    3.5620    0.4950 C   0  0  0  0  0  0  0  0  0  0  0  0
   -0.2500    4.3500   -0.2090 C   0  0  1  0  0  0  0  0  0  0  0  0
    0.9310    3.8630   -0.6340 C   0  0  1  0  0  0  0  0  0  0  0  0
    1.2890    2.5970   -0.3170 C   0  0  2  0  0  0  0  0  0  0  0  0
   -0.7340    5.7650   -0.5190 C   0  0  2  0  0  0  0  0  0  0  0  0
   -2.0210    3.9370    0.8360 H   0  0  0  0  0  0  0  0  0  0  0  0
   -1.4340    1.7090    1.3410 H   0  0  0  0  0  0  0  0  0  0  0  0
    3.6550    2.6620    0.0110 C   0  0  0  0  0  0  0  0  0  0  0  0
    1.8320    4.7030   -1.5410 C   0  0  0  0  0  0  0  0  0  0  0  0
    4.0580    1.8790    0.6590 H   0  0  0  0  0  0  0  0  0  0  0  0
    3.3620    3.5220    0.6220 H   0  0  0  0  0  0  0  0  0  0  0  0
    4.4210    2.9750   -0.7040 H   0  0  0  0  0  0  0  0  0  0  0  0
    2.5160    2.1400   -0.7270 O   0  0  0  0  0  0  0  0  0  0  0  0
    1.2620    5.3870   -2.1710 H   0  0  0  0  0  0  0  0  0  0  0  0
    2.5370    5.2880   -0.9470 H   0  0  0  0  0  0  0  0  0  0  0  0
    2.4060    4.0840   -2.2330 H   0  0  0  0  0  0  0  0  0  0  0  0
    0.1280    6.9060    0.0880 C   0  0  0  0  0  0  0  0  0  0  0  0
   -0.5440    8.2200   -0.0230 N   0  0  0  0  0  0  0  0  0  0  0  0
   -1.4630    7.8690   -0.5190 N   0  0  0  0  0  0  0  0  0  0  0  0
   -1.4800    6.5450   -0.7380 N   0  0  0  0  0  0  0  0  0  0  0  0
   -0.4170    9.5580    0.0850 C   0  0  0  0  0  0  0  0  0  0  0  0
    0.3450    6.6950    1.1400 H   0  0  0  0  0  0  0  0  0  0  0  0
    1.0790    6.9740   -0.4450 H   0  0  0  0  0  0  0  0  0  0  0  0
   -0.8690    5.8780   -1.5990 H   0  0  0  0  0  0  0  0  0  0  0  0
   -1.2230   10.6360    0.0930 C   0  0  0  0  0  0  0  0  0  0  0  0
   -0.7210   12.0300    0.1510 C   0  0  0  0  0  0  0  0  0  0  0  0
   -2.3030   10.5080    0.0180 H   0  0  0  0  0  0  0  0  0  0  0  0
    0.6730    9.7000    0.1550 H   0  0  0  0  0  0  0  0  0  0  0  0
   -1.6610   12.9320    0.0440 O   0  0  0  0  0  0  0  0  0  0  0  0
    0.4540   12.3270    0.2040 O   0  0  0  0  0  0  0  0  0  0  0  0
   -1.2340   13.8070    0.0000 H   0  0  0  0  0  0  0  0  0  0  0  0
  1  5  1  0  0  0  0
  2  1  1  0  0  0  0
  3  2  2  0  0  0  0
  4  2  1  6  0  0  0
  4 10  5  0  0  0  0
  6  4  5  0  0  0  0
  6  7  5  0  0  0  0
  6 13  1  0  0  0  0
  7 12  1  0  0  0  0
  8  7  5  6  0  0  0
  8 11  1  0  0  0  0
  9  8  5  0  0  0  0
  9 15  1  6  0  0  0
 10  9  5  0  0  0  0
 10 19  1  6  0  0  0
 11 26  1  0  0  0  0
 11 30  1  6  0  0  0
 14 16  1  0  0  0  0
 14 17  1  0  0  0  0
 14 18  1  0  0  0  0
 14 19  1  0  0  0  0
 15 20  1  0  0  0  0
 15 21  1  0  0  0  0
 15 22  1  0  0  0  0
 23 11  1  0  0  0  0
 23 28  1  0  0  0  0
 23 29  1  0  0  0  0
 24 23  1  0  0  0  0
 25 24  1  0  0  0  0
 26 25  2  0  0  0  0
 27 24  1  0  0  0  0
 27 34  1  0  0  0  0
 31 27  2  0  0  0  0
 31 33  1  0  0  0  0
 32 31  1  0  0  0  0
 32 36  2  0  0  0  0
 35 32  1  0  0  0  0
 37 35  1  0  0  0  0
M  END
