44

O          1.07500        1.57900       -0.31200
C         -0.06700        2.27600       -0.11500
O         -1.12100        1.69300        0.11400
C          0.07200        3.77300       -0.15300
H          1.83100        2.09200       -0.64400
C         -1.01300        4.54400       -0.39900
C         -0.91400        5.88700       -0.31100
C          0.23300        6.53700        0.03400
C          1.32500        5.74900        0.22100
C          1.24100        4.39400        0.12900
C          0.17300        8.05900        0.36400
H         -1.82800        6.45100       -0.47500
N         -2.28400        3.99500       -0.72400
H          2.12800        3.81000        0.34700
N          2.59200        6.27000        0.57400
C          1.13500        9.19500       -0.08600
C          0.46000       10.39800        0.61200
N         -0.98700       10.10200        0.46800
N         -1.10300        8.73100        0.01700
C          0.71200       11.90900        0.33200
H         -1.87400        8.27600        0.51000
H         -1.38400       10.75700       -0.22100
H          2.15400        9.06100        0.28800
H          0.68700       10.27500        1.68200
H          1.16900        9.30100       -1.17700
H          0.21700        8.04300        1.46700
H          3.30100        5.63300        0.92100
H          2.64000        7.17600        1.01900
H         -3.12200        4.55800       -0.63400
H         -2.43600        3.00900       -0.49200
C          2.08100       12.41200       -0.09000
C          1.79400       13.80900       -0.66600
N          0.32000       13.88500       -0.83700
N         -0.18600       12.53300       -0.66100
C          2.32300       14.96400        0.19300
H         -0.12600       12.02100       -1.54800
H         -0.06500       14.52900       -0.12900
H          2.50200       11.77800       -0.87900
H          2.25700       13.92500       -1.65200
H          2.77900       12.43500        0.75300
H          0.47300       12.40400        1.28900
O          1.47200       16.01000        0.30300
O          3.43100       15.02900        0.70400
H          1.98700       16.70600        0.76500
