
 OpenBabel11042013083D

 28 28  0  0  1  0  0  0  0  0999 V2000
    1.4500    0.4090   -0.0400 O   0  0  0  0  0  0  0  0  0  0  0  0
    0.2820    1.0780   -0.0510 C   0  0  0  0  0  0  0  0  0  0  0  0
   -0.7890    0.4840   -0.0560 O   0  0  0  0  0  0  0  0  0  0  0  0
    0.3860    2.5680   -0.0470 C   0  0  1  0  0  0  0  0  0  0  0  0
    2.2480    0.9720   -0.0320 H   0  0  0  0  0  0  0  0  0  0  0  0
   -0.7780    3.2490   -0.0230 C   0  0  0  0  0  0  0  0  0  0  0  0
   -0.8230    4.6040   -0.0020 C   0  0  2  0  0  0  0  0  0  0  0  0
    0.3570    5.2850   -0.0260 C   0  0  2  0  0  0  0  0  0  0  0  0
    1.5270    4.6090   -0.0530 C   0  0  0  0  0  0  0  0  0  0  0  0
    1.5370    3.2640   -0.0580 C   0  0  1  0  0  0  0  0  0  0  0  0
    0.3750    6.7180   -0.0190 C   0  0  0  0  0  0  0  0  0  0  0  0
   -2.1580    5.3460    0.0660 C   0  0  0  0  0  0  0  0  0  0  0  0
   -1.7020    2.6760   -0.0140 H   0  0  0  0  0  0  0  0  0  0  0  0
    2.7260    2.6210   -0.0700 F   0  0  0  0  0  0  0  0  0  0  0  0
    2.4760    5.1380   -0.0660 H   0  0  0  0  0  0  0  0  0  0  0  0
    0.2960    7.9170   -0.0160 C   0  0  0  0  0  0  0  0  0  0  0  0
    0.1180    9.4410   -0.0110 C   0  0  0  0  0  0  0  0  0  0  0  0
   -0.0230   10.6340   -0.0050 C   0  0  0  0  0  0  0  0  0  0  0  0
   -0.1530   12.0620    0.0030 C   0  0  0  0  0  0  0  0  0  0  0  0
   -3.4200    4.4870    0.1140 C   0  0  0  0  0  0  0  0  0  0  0  0
   -3.4300    3.8540    1.0080 H   0  0  0  0  0  0  0  0  0  0  0  0
   -3.4980    3.8470   -0.7720 H   0  0  0  0  0  0  0  0  0  0  0  0
   -4.3110    5.1210    0.1460 H   0  0  0  0  0  0  0  0  0  0  0  0
   -2.1610    5.9730    0.9680 H   0  0  0  0  0  0  0  0  0  0  0  0
   -2.2430    6.0140   -0.8010 H   0  0  0  0  0  0  0  0  0  0  0  0
   -1.4220   12.5070    0.0040 O   0  0  0  0  0  0  0  0  0  0  0  0
    0.8020   12.8210    0.0100 O   0  0  0  0  0  0  0  0  0  0  0  0
   -1.3210   13.4820    0.0100 H   0  0  0  0  0  0  0  0  0  0  0  0
  1  5  1  0  0  0  0
  2  1  1  0  0  0  0
  3  2  2  0  0  0  0
  4  2  1  1  0  0  0
  4 10  5  0  0  0  0
  6  4  5  0  0  0  0
  6  7  5  0  0  0  0
  6 13  1  0  0  0  0
  7 12  1  1  0  0  0
  8  7  5  0  0  0  0
  8 11  1  1  0  0  0
  9  8  5  0  0  0  0
  9 15  1  0  0  0  0
 10  9  5  0  0  0  0
 10 14  1  1  0  0  0
 12 24  1  0  0  0  0
 12 25  1  0  0  0  0
 16 11  3  0  0  0  0
 17 16  1  0  0  0  0
 18 17  3  0  0  0  0
 19 18  1  0  0  0  0
 19 27  2  0  0  0  0
 20 21  1  0  0  0  0
 20 22  1  0  0  0  0
 20 23  1  0  0  0  0
 20 12  1  0  0  0  0
 26 19  1  0  0  0  0
 28 26  1  0  0  0  0
M  END
