28

O          1.45000        0.40900       -0.04000
C          0.28200        1.07800       -0.05100
O         -0.78900        0.48400       -0.05600
C          0.38600        2.56800       -0.04700
H          2.24800        0.97200       -0.03200
C         -0.77800        3.24900       -0.02300
C         -0.82300        4.60400       -0.00200
C          0.35700        5.28500       -0.02600
C          1.52700        4.60900       -0.05300
C          1.53700        3.26400       -0.05800
C          0.37500        6.71800       -0.01900
C         -2.15800        5.34600        0.06600
H         -1.70200        2.67600       -0.01400
F          2.72600        2.62100       -0.07000
H          2.47600        5.13800       -0.06600
C          0.29600        7.91700       -0.01600
C          0.11800        9.44100       -0.01100
C         -0.02300       10.63400       -0.00500
C         -0.15300       12.06200        0.00300
C         -3.42000        4.48700        0.11400
H         -3.43000        3.85400        1.00800
H         -3.49800        3.84700       -0.77200
H         -4.31100        5.12100        0.14600
H         -2.16100        5.97300        0.96800
H         -2.24300        6.01400       -0.80100
O         -1.42200       12.50700        0.00400
O          0.80200       12.82100        0.01000
H         -1.32100       13.48200        0.01000
