
 OpenBabel11042013083D

 43 44  0  0  1  0  0  0  0  0999 V2000
    0.4690   -0.2880    0.2210 O   0  0  0  0  0  0  0  0  0  0  0  0
   -0.6100    0.4890    0.4420 C   0  0  0  0  0  0  0  0  0  0  0  0
   -1.7410    0.0420    0.2860 O   0  0  0  0  0  0  0  0  0  0  0  0
   -0.3210    1.9520    0.7070 C   0  0  2  0  0  0  0  0  0  0  0  0
    1.2930    0.1410    0.5160 H   0  0  0  0  0  0  0  0  0  0  0  0
   -1.4150    2.7210    0.6630 C   0  0  0  0  0  0  0  0  0  0  0  0
   -1.3600    4.0690    0.5970 C   0  0  1  0  0  0  0  0  0  0  0  0
   -0.1300    4.6910    0.6350 C   0  0  1  0  0  0  0  0  0  0  0  0
    0.9580    3.8930    0.8470 C   0  0  0  0  0  0  0  0  0  0  0  0
    0.8850    2.5380    0.8310 C   0  0  2  0  0  0  0  0  0  0  0  0
    0.1620    6.1550    0.1430 C   0  0  2  0  0  0  0  0  0  0  0  0
   -2.7010    4.7410    0.3290 C   0  0  0  0  0  0  0  0  0  0  0  0
   -2.3740    2.2240    0.6120 H   0  0  0  0  0  0  0  0  0  0  0  0
    2.7030    1.8200   -0.4160 C   0  0  0  0  0  0  0  0  0  0  0  0
    1.9440    4.3520    0.9140 H   0  0  0  0  0  0  0  0  0  0  0  0
    0.9040    7.1800    0.8900 O   0  0  0  0  0  0  0  0  0  0  0  0
   -0.6700    8.3510   -0.3310 C   0  0  0  0  0  0  0  0  0  0  0  0
   -1.0110    6.9230   -0.4380 C   0  0  0  0  0  0  0  0  0  0  0  0
    1.2230    9.7370    0.4220 C   0  0  0  0  0  0  0  0  0  0  0  0
   -1.9000    6.8820    0.1870 H   0  0  0  0  0  0  0  0  0  0  0  0
   -1.2420    8.7190    0.5360 H   0  0  0  0  0  0  0  0  0  0  0  0
   -0.9590    8.9240   -1.2150 H   0  0  0  0  0  0  0  0  0  0  0  0
   -1.2140    6.6260   -1.4700 H   0  0  0  0  0  0  0  0  0  0  0  0
    1.3840    8.1020   -0.9050 H   0  0  0  0  0  0  0  0  0  0  0  0
    0.7990    8.3440   -0.0050 C   0  0  1  0  0  0  0  0  0  0  0  0
    0.8330    5.9520   -0.7090 H   0  0  0  0  0  0  0  0  0  0  0  0
    3.2440    0.8780   -0.5430 H   0  0  0  0  0  0  0  0  0  0  0  0
    1.9840    1.9040   -1.2390 H   0  0  0  0  0  0  0  0  0  0  0  0
    3.4120    2.6480   -0.4340 H   0  0  0  0  0  0  0  0  0  0  0  0
    2.0410    1.7620    0.8570 O   0  0  0  0  0  0  0  0  0  0  0  0
   -3.9470    4.0460   -0.2210 C   0  0  0  0  0  0  0  0  0  0  0  0
   -3.9310    4.1150   -1.3180 H   0  0  0  0  0  0  0  0  0  0  0  0
   -4.0790    3.0030    0.0490 H   0  0  0  0  0  0  0  0  0  0  0  0
   -4.8300    4.6020    0.1070 H   0  0  0  0  0  0  0  0  0  0  0  0
   -2.5330    5.3710   -0.5310 H   0  0  0  0  0  0  0  0  0  0  0  0
   -2.9750    5.3300    1.2130 H   0  0  0  0  0  0  0  0  0  0  0  0
    0.3430   10.7650    0.4190 C   0  0  0  0  0  0  0  0  0  0  0  0
    0.6070   12.2020    0.3630 C   0  0  0  0  0  0  0  0  0  0  0  0
   -0.7230   10.6050    0.3190 H   0  0  0  0  0  0  0  0  0  0  0  0
    2.2920    9.9440    0.4550 H   0  0  0  0  0  0  0  0  0  0  0  0
   -0.5490   12.8370    0.1300 O   0  0  0  0  0  0  0  0  0  0  0  0
    1.6720   12.7590    0.3900 O   0  0  0  0  0  0  0  0  0  0  0  0
   -0.3420   13.7810   -0.0040 H   0  0  0  0  0  0  0  0  0  0  0  0
  1  5  1  0  0  0  0
  2  1  1  0  0  0  0
  3  2  2  0  0  0  0
  4  2  1  6  0  0  0
  4 10  5  0  0  0  0
  6  4  5  0  0  0  0
  6  7  5  0  0  0  0
  6 13  1  0  0  0  0
  7 12  1  6  0  0  0
  8  7  5  0  0  0  0
  8  9  5  6  0  0  0
  8 11  1  0  0  0  0
  9 15  1  0  0  0  0
 10  9  5  0  0  0  0
 10 30  1  6  0  0  0
 11 18  1  0  0  0  0
 11 26  1  6  0  0  0
 12 35  1  0  0  0  0
 12 36  1  0  0  0  0
 14 27  1  0  0  0  0
 14 28  1  0  0  0  0
 14 29  1  0  0  0  0
 14 30  1  0  0  0  0
 16 11  1  0  0  0  0
 17 25  1  0  0  0  0
 17 22  1  0  0  0  0
 18 17  1  0  0  0  0
 18 23  1  0  0  0  0
 19 25  1  0  0  0  0
 19 40  1  0  0  0  0
 20 18  1  0  0  0  0
 21 17  1  0  0  0  0
 25 16  1  0  0  0  0
 25 24  1  6  0  0  0
 31 32  1  0  0  0  0
 31 33  1  0  0  0  0
 31 34  1  0  0  0  0
 31 12  1  0  0  0  0
 37 19  2  0  0  0  0
 37 39  1  0  0  0  0
 38 37  1  0  0  0  0
 38 42  2  0  0  0  0
 41 38  1  0  0  0  0
 43 41  1  0  0  0  0
M  END
