43

O          0.46900       -0.28800        0.22100
C         -0.61000        0.48900        0.44200
O         -1.74100        0.04200        0.28600
C         -0.32100        1.95200        0.70700
H          1.29300        0.14100        0.51600
C         -1.41500        2.72100        0.66300
C         -1.36000        4.06900        0.59700
C         -0.13000        4.69100        0.63500
C          0.95800        3.89300        0.84700
C          0.88500        2.53800        0.83100
C          0.16200        6.15500        0.14300
C         -2.70100        4.74100        0.32900
H         -2.37400        2.22400        0.61200
C          2.70300        1.82000       -0.41600
H          1.94400        4.35200        0.91400
O          0.90400        7.18000        0.89000
C         -0.67000        8.35100       -0.33100
C         -1.01100        6.92300       -0.43800
C          1.22300        9.73700        0.42200
H         -1.90000        6.88200        0.18700
H         -1.24200        8.71900        0.53600
H         -0.95900        8.92400       -1.21500
H         -1.21400        6.62600       -1.47000
H          1.38400        8.10200       -0.90500
C          0.79900        8.34400       -0.00500
H          0.83300        5.95200       -0.70900
H          3.24400        0.87800       -0.54300
H          1.98400        1.90400       -1.23900
H          3.41200        2.64800       -0.43400
O          2.04100        1.76200        0.85700
C         -3.94700        4.04600       -0.22100
H         -3.93100        4.11500       -1.31800
H         -4.07900        3.00300        0.04900
H         -4.83000        4.60200        0.10700
H         -2.53300        5.37100       -0.53100
H         -2.97500        5.33000        1.21300
C          0.34300       10.76500        0.41900
C          0.60700       12.20200        0.36300
H         -0.72300       10.60500        0.31900
H          2.29200        9.94400        0.45500
O         -0.54900       12.83700        0.13000
O          1.67200       12.75900        0.39000
H         -0.34200       13.78100       -0.00400
