27

O          1.08100        0.01700        0.21300
C         -0.02300        0.72600       -0.08000
O         -1.05700        0.11700       -0.30700
C          0.07600        2.24100       -0.09000
H          1.91400        0.51700        0.27300
C         -1.11300        2.90600       -0.07500
C         -1.12600        4.25100       -0.15900
C         -0.00400        4.99100       -0.21700
C          1.20200        4.35500       -0.17500
C          1.23200        2.97800       -0.14200
N         -0.08800        6.35700       -0.37800
H         -2.08700        4.77000       -0.18800
C         -2.41300        2.29800        0.02200
Br         2.95700        2.13300       -0.22700
C          2.53200        5.15000       -0.15700
N         -3.50600        1.92300        0.12200
C          2.57000        6.64400        0.15600
H          2.02800        6.87500        1.07800
H          3.60500        6.97200        0.29900
H          2.17300        7.23300       -0.67600
H          3.16900        4.71600        0.62500
H          3.03300        5.00600       -1.12200
N         -0.81900        7.00200        0.40600
C         -0.63700        8.35500        0.22200
O         -1.80600        9.01600        0.16000
O          0.41100        8.98200        0.13200
H         -1.50500        9.93800        0.02500
