
 OpenBabel11042013083D

 40 41  0  0  1  0  0  0  0  0999 V2000
    0.0990    0.5540    0.9090 O   0  0  0  0  0  0  0  0  0  0  0  0
   -0.8840    1.2930    0.3460 C   0  0  0  0  0  0  0  0  0  0  0  0
   -1.8930    0.7450   -0.0740 O   0  0  0  0  0  0  0  0  0  0  0  0
   -0.6370    2.7870    0.2980 C   0  0  2  0  0  0  0  0  0  0  0  0
    0.8930    1.0850    1.1250 H   0  0  0  0  0  0  0  0  0  0  0  0
   -1.6880    3.6460    0.1380 C   0  0  1  0  0  0  0  0  0  0  0  0
   -1.4420    4.9770    0.0460 C   0  0  0  0  0  0  0  0  0  0  0  0
   -0.1920    5.4860    0.1190 C   0  0  1  0  0  0  0  0  0  0  0  0
    0.8300    4.6190    0.2850 C   0  0  0  0  0  0  0  0  0  0  0  0
    0.6260    3.2860    0.3610 C   0  0  2  0  0  0  0  0  0  0  0  0
    0.1160    6.8960   -0.1210 C   0  0  0  0  0  0  0  0  0  0  0  0
   -2.2800    5.6540   -0.1170 H   0  0  0  0  0  0  0  0  0  0  0  0
   -3.1270    3.1800    0.0350 C   0  0  0  0  0  0  0  0  0  0  0  0
    2.6380    2.5260   -0.5940 C   0  0  0  0  0  0  0  0  0  0  0  0
    1.8490    5.0010    0.3390 H   0  0  0  0  0  0  0  0  0  0  0  0
   -0.6100    7.9800    0.2080 C   0  0  0  0  0  0  0  0  0  0  0  0
   -0.2770    9.3590   -0.3000 C   0  0  2  0  0  0  0  0  0  0  0  0
   -1.5310    7.8690    0.7740 H   0  0  0  0  0  0  0  0  0  0  0  0
    1.0330    7.0550   -0.6910 H   0  0  0  0  0  0  0  0  0  0  0  0
    3.1140    1.5480   -0.7170 H   0  0  0  0  0  0  0  0  0  0  0  0
    3.4120    3.2620   -0.3570 H   0  0  0  0  0  0  0  0  0  0  0  0
    2.1410    2.7810   -1.5370 H   0  0  0  0  0  0  0  0  0  0  0  0
    1.7150    2.4260    0.4960 O   0  0  0  0  0  0  0  0  0  0  0  0
    1.0310    9.9890    0.1550 C   0  0  0  0  0  0  0  0  0  0  0  0
    0.8110   11.4230   -0.2800 C   0  0  1  0  0  0  0  0  0  0  0  0
   -0.6170   11.6870    0.0570 N   0  0  0  0  0  0  0  0  0  0  0  0
   -1.2720   10.3680    0.1010 N   0  0  0  0  0  0  0  0  0  0  0  0
    1.7080   12.4710    0.3660 C   0  0  0  0  0  0  0  0  0  0  0  0
   -2.0760   10.3260   -0.5320 H   0  0  0  0  0  0  0  0  0  0  0  0
   -0.6520   12.0620    1.0170 H   0  0  0  0  0  0  0  0  0  0  0  0
    1.9020    9.5480   -0.3420 H   0  0  0  0  0  0  0  0  0  0  0  0
    0.9420   11.5160   -1.3660 H   0  0  0  0  0  0  0  0  0  0  0  0
    1.1800    9.9110    1.2400 H   0  0  0  0  0  0  0  0  0  0  0  0
   -0.2840    9.3150   -1.3990 H   0  0  0  0  0  0  0  0  0  0  0  0
   -3.2890    2.6170   -0.8900 H   0  0  0  0  0  0  0  0  0  0  0  0
   -3.4060    2.5630    0.8970 H   0  0  0  0  0  0  0  0  0  0  0  0
   -3.8340    4.0180    0.0160 H   0  0  0  0  0  0  0  0  0  0  0  0
    1.1480   13.7110    0.3280 O   0  0  0  0  0  0  0  0  0  0  0  0
    2.8230   12.2660    0.8170 O   0  0  0  0  0  0  0  0  0  0  0  0
    0.2710   13.6820   -0.1140 H   0  0  0  0  0  0  0  0  0  0  0  0
  1  5  1  0  0  0  0
  2  1  1  0  0  0  0
  3  2  2  0  0  0  0
  4  2  1  6  0  0  0
  4 10  5  0  0  0  0
  6  4  5  0  0  0  0
  6  7  5  0  0  0  0
  6 13  1  6  0  0  0
  7 12  1  0  0  0  0
  8  7  5  0  0  0  0
  8 11  1  6  0  0  0
  9  8  5  0  0  0  0
  9 15  1  0  0  0  0
 10  9  5  0  0  0  0
 10 23  1  6  0  0  0
 11 19  1  0  0  0  0
 13 35  1  0  0  0  0
 13 36  1  0  0  0  0
 13 37  1  0  0  0  0
 14 20  1  0  0  0  0
 14 21  1  0  0  0  0
 14 22  1  0  0  0  0
 14 23  1  0  0  0  0
 16 11  2  0  0  0  0
 16 18  1  0  0  0  0
 17 16  1  0  0  0  0
 17 27  1  0  0  0  0
 17 34  1  6  0  0  0
 24 17  1  0  0  0  0
 24 31  1  0  0  0  0
 24 33  1  0  0  0  0
 25 24  1  0  0  0  0
 25 32  1  6  0  0  0
 26 25  1  0  0  0  0
 27 26  1  0  0  0  0
 28 25  1  0  0  0  0
 28 39  2  0  0  0  0
 29 27  1  0  0  0  0
 30 26  1  0  0  0  0
 38 28  1  0  0  0  0
 40 38  1  0  0  0  0
M  END
