
 OpenBabel11042013083D

 23 23  0  0  1  0  0  0  0  0999 V2000
    0.7640    0.5760    0.2240 O   0  0  0  0  0  0  0  0  0  0  0  0
   -0.3210    1.2510   -0.2200 C   0  0  0  0  0  0  0  0  0  0  0  0
   -1.2120    0.6040   -0.7450 O   0  0  0  0  0  0  0  0  0  0  0  0
   -0.2460    2.7440   -0.0520 C   0  0  2  0  0  0  0  0  0  0  0  0
    0.5910   -0.3280   -0.1170 H   0  0  0  0  0  0  0  0  0  0  0  0
   -1.3930    3.4730   -0.0650 C   0  0  2  0  0  0  0  0  0  0  0  0
   -1.3310    4.8250   -0.0500 C   0  0  2  0  0  0  0  0  0  0  0  0
   -0.1610    5.4700    0.0210 C   0  0  2  0  0  0  0  0  0  0  0  0
    0.9870    4.7610    0.1130 C   0  0  2  0  0  0  0  0  0  0  0  0
    0.9400    3.4040    0.0580 C   0  0  1  0  0  0  0  0  0  0  0  0
   -0.0990    6.9480    0.0350 C   0  0  0  0  0  0  0  0  0  0  0  0
   -2.5030    5.5120   -0.0700 F   0  0  0  0  0  0  0  0  0  0  0  0
   -2.7080    2.8800   -0.0560 N   0  0  0  0  0  0  0  0  0  0  0  0
    2.2020    2.7290    0.1290 N   0  0  0  0  0  0  0  0  0  0  0  0
    2.2340    5.3730    0.2740 O   0  0  0  0  0  0  0  0  0  0  0  0
    2.1640    6.3290    0.4710 H   0  0  0  0  0  0  0  0  0  0  0  0
    2.9480    3.2930    0.5320 H   0  0  0  0  0  0  0  0  0  0  0  0
    2.1560    1.7850    0.5100 H   0  0  0  0  0  0  0  0  0  0  0  0
   -3.3910    3.5130   -0.4830 H   0  0  0  0  0  0  0  0  0  0  0  0
   -3.0470    2.8440    0.9110 H   0  0  0  0  0  0  0  0  0  0  0  0
   -1.1530    7.5640   -0.5210 O   0  0  0  0  0  0  0  0  0  0  0  0
    0.8490    7.5970    0.4530 O   0  0  0  0  0  0  0  0  0  0  0  0
   -0.9540    8.5210   -0.4520 H   0  0  0  0  0  0  0  0  0  0  0  0
  1  5  1  0  0  0  0
  2  1  1  0  0  0  0
  3  2  2  0  0  0  0
  4  2  1  6  0  0  0
  4 10  5  0  0  0  0
  6  4  5  0  0  0  0
  6  7  5  0  0  0  0
  6 13  1  1  0  0  0
  7 12  1  1  0  0  0
  8  7  5  0  0  0  0
  8 11  1  1  0  0  0
  9  8  5  0  0  0  0
  9 15  1  1  0  0  0
 10  9  5  0  0  0  0
 10 14  1  1  0  0  0
 11 22  2  0  0  0  0
 13 19  1  0  0  0  0
 13 20  1  0  0  0  0
 14 17  1  0  0  0  0
 14 18  1  0  0  0  0
 15 16  1  0  0  0  0
 21 11  1  0  0  0  0
 23 21  1  0  0  0  0
M  END
