
 OpenBabel11042013083D

 37 38  0  0  1  0  0  0  0  0999 V2000
    0.6160   -0.5950    0.3020 O   0  0  0  0  0  0  0  0  0  0  0  0
   -0.3800    0.2780    0.1150 C   0  0  0  0  0  0  0  0  0  0  0  0
   -1.5220   -0.1570    0.0150 O   0  0  0  0  0  0  0  0  0  0  0  0
   -0.0460    1.7640    0.1380 C   0  0  1  0  0  0  0  0  0  0  0  0
    1.3390   -0.4570   -0.3240 H   0  0  0  0  0  0  0  0  0  0  0  0
   -1.2330    2.4200    0.2400 C   0  0  0  0  0  0  0  0  0  0  0  0
   -1.3370    3.7550    0.2930 C   0  0  0  0  0  0  0  0  0  0  0  0
   -0.2440    4.5340    0.2120 C   0  0  1  0  0  0  0  0  0  0  0  0
    0.9340    3.8820    0.1200 C   0  0  0  0  0  0  0  0  0  0  0  0
    1.0940    2.5250    0.1050 C   0  0  1  0  0  0  0  0  0  0  0  0
   -0.3140    6.0120    0.1480 C   0  0  2  0  0  0  0  0  0  0  0  0
   -2.3390    4.1600    0.3800 H   0  0  0  0  0  0  0  0  0  0  0  0
   -2.1840    1.8930    0.2870 H   0  0  0  0  0  0  0  0  0  0  0  0
    2.5960    2.2550    0.0530 C   0  0  0  0  0  0  0  0  0  0  0  0
    1.8430    4.4730    0.0370 H   0  0  0  0  0  0  0  0  0  0  0  0
   -1.4840    6.6630   -0.0720 C   0  0  0  0  0  0  0  0  0  0  0  0
   -1.5200    7.9900   -0.2650 C   0  0  0  0  0  0  0  0  0  0  0  0
   -0.3790    8.7020   -0.2480 C   0  0  2  0  0  0  0  0  0  0  0  0
    0.7950    8.1000    0.0130 C   0  0  1  0  0  0  0  0  0  0  0  0
    0.8060    6.7720    0.2330 C   0  0  0  0  0  0  0  0  0  0  0  0
   -0.4450   10.0940   -0.4630 C   0  0  0  0  0  0  0  0  0  0  0  0
   -2.4750    8.4750   -0.4480 H   0  0  0  0  0  0  0  0  0  0  0  0
   -2.4360    6.1450   -0.1230 H   0  0  0  0  0  0  0  0  0  0  0  0
    1.7760    6.3420    0.4610 H   0  0  0  0  0  0  0  0  0  0  0  0
    2.0400    8.8080    0.0400 C   0  0  0  0  0  0  0  0  0  0  0  0
   -0.4480   11.2940   -0.4570 C   0  0  0  0  0  0  0  0  0  0  0  0
   -0.4510   12.6940   -0.2210 C   0  0  0  0  0  0  0  0  0  0  0  0
    3.0750    9.3350    0.0420 N   0  0  0  0  0  0  0  0  0  0  0  0
    3.1570    0.8870   -0.1930 C   0  0  0  0  0  0  0  0  0  0  0  0
    2.8290    0.2080    0.5910 H   0  0  0  0  0  0  0  0  0  0  0  0
    2.8840    0.5400   -1.1930 H   0  0  0  0  0  0  0  0  0  0  0  0
    4.2490    0.9130   -0.1320 H   0  0  0  0  0  0  0  0  0  0  0  0
    3.0510    2.8990   -0.7210 H   0  0  0  0  0  0  0  0  0  0  0  0
    3.0230    2.6090    1.0060 H   0  0  0  0  0  0  0  0  0  0  0  0
   -1.6680   13.2050   -0.0750 O   0  0  0  0  0  0  0  0  0  0  0  0
    0.5550   13.3600   -0.0920 O   0  0  0  0  0  0  0  0  0  0  0  0
   -1.4920   14.1210    0.2060 H   0  0  0  0  0  0  0  0  0  0  0  0
  1  5  1  0  0  0  0
  2  1  1  0  0  0  0
  3  2  2  0  0  0  0
  4  2  1  1  0  0  0
  4 10  5  0  0  0  0
  6  4  5  0  0  0  0
  6  7  5  0  0  0  0
  6 13  1  0  0  0  0
  7 12  1  0  0  0  0
  8  7  5  6  0  0  0
  8 11  1  0  0  0  0
  9  8  5  0  0  0  0
  9 15  1  0  0  0  0
 10  9  5  0  0  0  0
 10 14  1  1  0  0  0
 11 16  5  6  0  0  0
 11 20  5  0  0  0  0
 14 33  1  0  0  0  0
 14 34  1  0  0  0  0
 16 17  5  0  0  0  0
 16 23  1  0  0  0  0
 17 22  1  0  0  0  0
 18 17  5  0  0  0  0
 18 21  1  1  0  0  0
 19 18  5  0  0  0  0
 19 25  1  6  0  0  0
 20 19  5  0  0  0  0
 20 24  1  0  0  0  0
 25 28  3  0  0  0  0
 26 21  3  0  0  0  0
 27 26  1  0  0  0  0
 27 36  2  0  0  0  0
 29 30  1  0  0  0  0
 29 31  1  0  0  0  0
 29 32  1  0  0  0  0
 29 14  1  0  0  0  0
 35 27  1  0  0  0  0
 37 35  1  0  0  0  0
M  END
