33

O          1.60000       -0.18100       -0.75000
C          0.39500        0.29600       -0.37100
O         -0.51300       -0.45500       -0.04700
C          0.30000        1.78100       -0.33400
H          2.22800        0.48400       -1.08600
C         -0.89700        2.33300       -0.57100
C         -1.10500        3.66000       -0.41000
C         -0.09000        4.49700       -0.03800
C          1.14300        3.92100        0.09900
C          1.33200        2.58800       -0.01300
C         -0.27300        5.98100        0.35800
N         -2.45800        4.09500       -0.60600
F         -1.95000        1.55400       -0.92100
H          2.32100        2.18100        0.17800
N          2.31500        4.68800        0.38300
H         -3.08200        3.32000       -0.84200
H         -2.85300        4.56000        0.20500
H          2.16600        5.68800        0.21400
H          2.61700        4.59400        1.35100
O          0.67500        6.90100       -0.24100
C         -1.23400        8.16800        0.35000
C         -1.59600        6.71000        0.18800
C          0.74700        9.44200       -0.55900
H         -2.00400        6.57400       -0.81800
H         -1.54500        8.55700        1.32600
H         -1.74900        8.76700       -0.41000
H         -2.34100        6.40900        0.93100
H          0.73000        8.31700        1.22000
C          0.28400        8.20400        0.22600
H         -0.04800        5.99600        1.43700
O          0.09100       10.56300       -0.17600
O          1.64700        9.51300       -1.37600
H          0.48400       11.27800       -0.71700
