
 OpenBabel11042013043D

 44 46  0  0  1  0  0  0  0  0999 V2000
    1.2270   -0.3000   -0.1450 O   0  0  0  0  0  0  0  0  0  0  0  0
    0.1040    0.4440   -0.1790 C   0  0  0  0  0  0  0  0  0  0  0  0
   -1.0000   -0.0830   -0.1700 O   0  0  0  0  0  0  0  0  0  0  0  0
    0.3070    1.9250   -0.1910 C   0  0  1  0  0  0  0  0  0  0  0  0
    2.0640    0.1830   -0.1950 H   0  0  0  0  0  0  0  0  0  0  0  0
   -0.8220    2.6630   -0.2360 C   0  0  0  0  0  0  0  0  0  0  0  0
   -0.8270    4.0140   -0.1330 C   0  0  2  0  0  0  0  0  0  0  0  0
    0.3880    4.6600   -0.0640 C   0  0  2  0  0  0  0  0  0  0  0  0
    1.5160    3.9080   -0.0570 C   0  0  0  0  0  0  0  0  0  0  0  0
    1.4870    2.5650   -0.1020 C   0  0  0  0  0  0  0  0  0  0  0  0
    0.6230    6.1060    0.1020 C   0  0  0  0  0  0  0  0  0  0  0  0
   -2.2010    4.7090   -0.0420 C   0  0  0  0  0  0  0  0  0  0  0  0
   -1.7600    2.1280   -0.3280 H   0  0  0  0  0  0  0  0  0  0  0  0
    2.4410    2.0600   -0.0360 H   0  0  0  0  0  0  0  0  0  0  0  0
    2.4940    4.3840    0.0160 H   0  0  0  0  0  0  0  0  0  0  0  0
   -0.3100    7.0600    0.0880 C   0  0  0  0  0  0  0  0  0  0  0  0
   -0.2460    8.4750    0.5120 C   0  0  1  0  0  0  0  0  0  0  0  0
   -1.3220    6.8230   -0.1800 H   0  0  0  0  0  0  0  0  0  0  0  0
    1.6430    6.4070    0.3380 H   0  0  0  0  0  0  0  0  0  0  0  0
   -3.5260    3.9620    0.1580 C   0  0  0  0  0  0  0  0  0  0  0  0
   -3.4420    2.8940    0.3500 H   0  0  0  0  0  0  0  0  0  0  0  0
   -4.0590    4.3930    1.0150 H   0  0  0  0  0  0  0  0  0  0  0  0
   -4.1760    4.1100   -0.7120 H   0  0  0  0  0  0  0  0  0  0  0  0
   -2.1550    5.3600    0.8410 H   0  0  0  0  0  0  0  0  0  0  0  0
   -2.3380    5.3170   -0.9470 H   0  0  0  0  0  0  0  0  0  0  0  0
    0.8190    9.4020   -0.0230 C   0  0  0  0  0  0  0  0  0  0  0  0
   -0.0030   10.5900   -0.0960 N   0  0  0  0  0  0  0  0  0  0  0  0
   -1.3100   10.2770   -0.3160 N   0  0  0  0  0  0  0  0  0  0  0  0
   -1.4980    9.0900    0.0020 N   0  0  0  0  0  0  0  0  0  0  0  0
    0.3890   11.9170   -0.4790 C   0  0  2  0  0  0  0  0  0  0  0  0
    1.6550    9.5290    0.6690 H   0  0  0  0  0  0  0  0  0  0  0  0
    1.1760    9.1310   -1.0220 H   0  0  0  0  0  0  0  0  0  0  0  0
   -0.2990    8.5280    1.6070 H   0  0  0  0  0  0  0  0  0  0  0  0
    1.6650   12.4860    0.0880 C   0  0  0  0  0  0  0  0  0  0  0  0
    1.2000   13.8350    0.3570 N   0  0  0  0  0  0  0  0  0  0  0  0
   -0.1400   13.9010    0.4860 N   0  0  0  0  0  0  0  0  0  0  0  0
   -0.6410   12.8370    0.0790 N   0  0  0  0  0  0  0  0  0  0  0  0
    1.8840   14.9730   -0.0010 C   0  0  0  0  0  0  0  0  0  0  0  0
    2.5030   12.4550   -0.6160 H   0  0  0  0  0  0  0  0  0  0  0  0
    1.9660   12.0290    1.0370 H   0  0  0  0  0  0  0  0  0  0  0  0
    0.3760   11.9850   -1.5730 H   0  0  0  0  0  0  0  0  0  0  0  0
    1.0780   16.0560   -0.0040 O   0  0  0  0  0  0  0  0  0  0  0  0
    3.0520   15.0110   -0.3460 O   0  0  0  0  0  0  0  0  0  0  0  0
    0.1840   15.7280    0.2310 H   0  0  0  0  0  0  0  0  0  0  0  0
  1  5  1  0  0  0  0
  2  1  1  0  0  0  0
  3  2  2  0  0  0  0
  4  2  1  1  0  0  0
  4 10  5  0  0  0  0
  6  4  5  0  0  0  0
  6  7  5  0  0  0  0
  6 13  1  0  0  0  0
  7 12  1  1  0  0  0
  8  7  5  0  0  0  0
  8 11  1  1  0  0  0
  9  8  5  0  0  0  0
  9 15  1  0  0  0  0
 10  9  5  0  0  0  0
 10 14  1  0  0  0  0
 11 19  1  0  0  0  0
 12 24  1  0  0  0  0
 12 25  1  0  0  0  0
 16 11  2  0  0  0  0
 16 18  1  0  0  0  0
 17 16  1  0  0  0  0
 17 29  1  0  0  0  0
 17 33  1  1  0  0  0
 20 21  1  0  0  0  0
 20 22  1  0  0  0  0
 20 23  1  0  0  0  0
 20 12  1  0  0  0  0
 26 17  1  0  0  0  0
 26 31  1  0  0  0  0
 26 32  1  0  0  0  0
 27 26  1  0  0  0  0
 28 27  1  0  0  0  0
 29 28  2  0  0  0  0
 30 27  1  0  0  0  0
 30 37  1  0  0  0  0
 30 41  1  6  0  0  0
 34 30  1  0  0  0  0
 34 39  1  0  0  0  0
 34 40  1  0  0  0  0
 35 34  1  0  0  0  0
 36 35  1  0  0  0  0
 37 36  2  0  0  0  0
 38 35  1  0  0  0  0
 38 43  2  0  0  0  0
 42 38  1  0  0  0  0
 44 42  1  0  0  0  0
M  END
