44

O          1.22700       -0.30000       -0.14500
C          0.10400        0.44400       -0.17900
O         -1.00000       -0.08300       -0.17000
C          0.30700        1.92500       -0.19100
H          2.06400        0.18300       -0.19500
C         -0.82200        2.66300       -0.23600
C         -0.82700        4.01400       -0.13300
C          0.38800        4.66000       -0.06400
C          1.51600        3.90800       -0.05700
C          1.48700        2.56500       -0.10200
C          0.62300        6.10600        0.10200
C         -2.20100        4.70900       -0.04200
H         -1.76000        2.12800       -0.32800
H          2.44100        2.06000       -0.03600
H          2.49400        4.38400        0.01600
C         -0.31000        7.06000        0.08800
C         -0.24600        8.47500        0.51200
H         -1.32200        6.82300       -0.18000
H          1.64300        6.40700        0.33800
C         -3.52600        3.96200        0.15800
H         -3.44200        2.89400        0.35000
H         -4.05900        4.39300        1.01500
H         -4.17600        4.11000       -0.71200
H         -2.15500        5.36000        0.84100
H         -2.33800        5.31700       -0.94700
C          0.81900        9.40200       -0.02300
N         -0.00300       10.59000       -0.09600
N         -1.31000       10.27700       -0.31600
N         -1.49800        9.09000        0.00200
C          0.38900       11.91700       -0.47900
H          1.65500        9.52900        0.66900
H          1.17600        9.13100       -1.02200
H         -0.29900        8.52800        1.60700
C          1.66500       12.48600        0.08800
N          1.20000       13.83500        0.35700
N         -0.14000       13.90100        0.48600
N         -0.64100       12.83700        0.07900
C          1.88400       14.97300       -0.00100
H          2.50300       12.45500       -0.61600
H          1.96600       12.02900        1.03700
H          0.37600       11.98500       -1.57300
O          1.07800       16.05600       -0.00400
O          3.05200       15.01100       -0.34600
H          0.18400       15.72800        0.23100
