36

O          1.28100        0.64200        0.12200
C          0.17600        1.26800        0.58500
O         -0.72100        0.67500        1.16200
C          0.17400        2.74000        0.33400
H          1.89700        1.19500       -0.39300
C         -0.88900        3.40200       -0.18700
C         -0.77800        4.74600       -0.31100
C          0.31500        5.46700        0.05200
C          1.38100        4.76000        0.52700
C          1.28600        3.41900        0.68000
C          0.18200        6.99500       -0.12800
F         -1.83600        5.41900       -0.83100
C         -2.17700        2.71400       -0.63700
H          2.13300        2.87900        1.11300
C          2.63700        5.32900        0.89700
C          1.34900        7.97900        0.01300
C          0.76400        9.24200        0.63800
N         -0.67300        8.96800        0.81600
N         -0.78900        7.53200        0.84600
C          1.01000       10.49800       -0.19200
H         -1.73700        7.21300        0.61600
H         -1.18800        9.40900        0.04400
H          2.12400        7.64300        0.69500
H          1.20600        9.42500        1.62600
H          1.81200        8.16000       -0.96400
H         -0.22100        7.16400       -1.13900
C         -3.45500        3.24800        0.00700
H         -3.82100        4.13500       -0.52200
H         -3.31100        3.50800        1.06100
H         -4.24800        2.49500       -0.05200
H         -2.26000        2.80700       -1.72800
H         -2.14600        1.63800       -0.45100
N          3.69800        5.71100        1.16800
O         -0.08200       11.27800       -0.35800
O          2.08100       10.84900       -0.66400
H          0.26400       12.08600       -0.79400
