
 OpenBabel11042013083D

 36 37  0  0  1  0  0  0  0  0999 V2000
    1.2810    0.6420    0.1220 O   0  0  0  0  0  0  0  0  0  0  0  0
    0.1760    1.2680    0.5850 C   0  0  0  0  0  0  0  0  0  0  0  0
   -0.7210    0.6750    1.1620 O   0  0  0  0  0  0  0  0  0  0  0  0
    0.1740    2.7400    0.3340 C   0  0  1  0  0  0  0  0  0  0  0  0
    1.8970    1.1950   -0.3930 H   0  0  0  0  0  0  0  0  0  0  0  0
   -0.8890    3.4020   -0.1870 C   0  0  1  0  0  0  0  0  0  0  0  0
   -0.7780    4.7460   -0.3110 C   0  0  2  0  0  0  0  0  0  0  0  0
    0.3150    5.4670    0.0520 C   0  0  2  0  0  0  0  0  0  0  0  0
    1.3810    4.7600    0.5270 C   0  0  2  0  0  0  0  0  0  0  0  0
    1.2860    3.4190    0.6800 C   0  0  0  0  0  0  0  0  0  0  0  0
    0.1820    6.9950   -0.1280 C   0  0  2  0  0  0  0  0  0  0  0  0
   -1.8360    5.4190   -0.8310 F   0  0  0  0  0  0  0  0  0  0  0  0
   -2.1770    2.7140   -0.6370 C   0  0  0  0  0  0  0  0  0  0  0  0
    2.1330    2.8790    1.1130 H   0  0  0  0  0  0  0  0  0  0  0  0
    2.6370    5.3290    0.8970 C   0  0  0  0  0  0  0  0  0  0  0  0
    1.3490    7.9790    0.0130 C   0  0  0  0  0  0  0  0  0  0  0  0
    0.7640    9.2420    0.6380 C   0  0  2  0  0  0  0  0  0  0  0  0
   -0.6730    8.9680    0.8160 N   0  0  0  0  0  0  0  0  0  0  0  0
   -0.7890    7.5320    0.8460 N   0  0  0  0  0  0  0  0  0  0  0  0
    1.0100   10.4980   -0.1920 C   0  0  0  0  0  0  0  0  0  0  0  0
   -1.7370    7.2130    0.6160 H   0  0  0  0  0  0  0  0  0  0  0  0
   -1.1880    9.4090    0.0440 H   0  0  0  0  0  0  0  0  0  0  0  0
    2.1240    7.6430    0.6950 H   0  0  0  0  0  0  0  0  0  0  0  0
    1.2060    9.4250    1.6260 H   0  0  0  0  0  0  0  0  0  0  0  0
    1.8120    8.1600   -0.9640 H   0  0  0  0  0  0  0  0  0  0  0  0
   -0.2210    7.1640   -1.1390 H   0  0  0  0  0  0  0  0  0  0  0  0
   -3.4550    3.2480    0.0070 C   0  0  0  0  0  0  0  0  0  0  0  0
   -3.8210    4.1350   -0.5220 H   0  0  0  0  0  0  0  0  0  0  0  0
   -3.3110    3.5080    1.0610 H   0  0  0  0  0  0  0  0  0  0  0  0
   -4.2480    2.4950   -0.0520 H   0  0  0  0  0  0  0  0  0  0  0  0
   -2.2600    2.8070   -1.7280 H   0  0  0  0  0  0  0  0  0  0  0  0
   -2.1460    1.6380   -0.4510 H   0  0  0  0  0  0  0  0  0  0  0  0
    3.6980    5.7110    1.1680 N   0  0  0  0  0  0  0  0  0  0  0  0
   -0.0820   11.2780   -0.3580 O   0  0  0  0  0  0  0  0  0  0  0  0
    2.0810   10.8490   -0.6640 O   0  0  0  0  0  0  0  0  0  0  0  0
    0.2640   12.0860   -0.7940 H   0  0  0  0  0  0  0  0  0  0  0  0
  1  5  1  0  0  0  0
  2  1  1  0  0  0  0
  3  2  2  0  0  0  0
  4  2  1  1  0  0  0
  4 10  5  0  0  0  0
  6  4  5  0  0  0  0
  6  7  5  0  0  0  0
  6 13  1  6  0  0  0
  7 12  1  1  0  0  0
  8  7  5  0  0  0  0
  8 11  1  1  0  0  0
  9  8  5  0  0  0  0
  9 15  1  1  0  0  0
 10  9  5  0  0  0  0
 10 14  1  0  0  0  0
 11 19  1  0  0  0  0
 11 26  1  6  0  0  0
 13 31  1  0  0  0  0
 13 32  1  0  0  0  0
 15 33  3  0  0  0  0
 16 11  1  0  0  0  0
 16 23  1  0  0  0  0
 16 25  1  0  0  0  0
 17 16  1  0  0  0  0
 17 24  1  1  0  0  0
 18 17  1  0  0  0  0
 19 18  1  0  0  0  0
 20 17  1  0  0  0  0
 20 35  2  0  0  0  0
 21 19  1  0  0  0  0
 22 18  1  0  0  0  0
 27 28  1  0  0  0  0
 27 29  1  0  0  0  0
 27 30  1  0  0  0  0
 27 13  1  0  0  0  0
 34 20  1  0  0  0  0
 36 34  1  0  0  0  0
M  END
