33

O          1.46100        0.67600       -0.21900
C          0.27300        1.24100        0.09400
O         -0.63200        0.52500        0.49100
C          0.18300        2.74600       -0.02400
H          2.17600        1.22600       -0.57100
C         -1.01500        3.39500       -0.11200
C         -1.04000        4.76000       -0.11000
C          0.10600        5.52900       -0.12700
C          1.28200        4.84500       -0.17100
C          1.30300        3.49200       -0.07000
C          0.08900        7.09200       -0.21600
C         -2.32600        5.39500       -0.17800
Br        -2.66600        2.43000       -0.30800
H          2.28200        3.02600       -0.03700
C          2.62900        5.47500       -0.46800
N         -3.35000        5.92900       -0.26200
H          3.15700        5.74200        0.45100
H          3.27100        4.79200       -1.04200
H          2.53000        6.34600       -1.12400
C          1.11300        7.97200        0.53600
C          0.69000        9.34600        0.03300
N         -0.78400        9.26100        0.04300
N         -1.10100        7.84800        0.23500
C          1.21300       10.57000        0.76100
H         -1.94200        7.62700       -0.30900
H         -1.15700        9.84400        0.80300
H          2.16200        7.80700        0.29600
H          1.01000        9.46300       -1.01100
H          1.01500        7.88400        1.62900
H          0.20000        7.27700       -1.29700
O          0.32300       11.58800        0.79900
O          2.35200       10.73200        1.17200
H          0.82700       12.36400        1.11900
