
 OpenBabel11042013083D

 33 34  0  0  1  0  0  0  0  0999 V2000
    1.4610    0.6760   -0.2190 O   0  0  0  0  0  0  0  0  0  0  0  0
    0.2730    1.2410    0.0940 C   0  0  0  0  0  0  0  0  0  0  0  0
   -0.6320    0.5250    0.4910 O   0  0  0  0  0  0  0  0  0  0  0  0
    0.1830    2.7460   -0.0240 C   0  0  2  0  0  0  0  0  0  0  0  0
    2.1760    1.2260   -0.5710 H   0  0  0  0  0  0  0  0  0  0  0  0
   -1.0150    3.3950   -0.1120 C   0  0  1  0  0  0  0  0  0  0  0  0
   -1.0400    4.7600   -0.1100 C   0  0  1  0  0  0  0  0  0  0  0  0
    0.1060    5.5290   -0.1270 C   0  0  1  0  0  0  0  0  0  0  0  0
    1.2820    4.8450   -0.1710 C   0  0  1  0  0  0  0  0  0  0  0  0
    1.3030    3.4920   -0.0700 C   0  0  0  0  0  0  0  0  0  0  0  0
    0.0890    7.0920   -0.2160 C   0  0  2  0  0  0  0  0  0  0  0  0
   -2.3260    5.3950   -0.1780 C   0  0  0  0  0  0  0  0  0  0  0  0
   -2.6660    2.4300   -0.3080 Br  0  0  0  0  0  0  0  0  0  0  0  0
    2.2820    3.0260   -0.0370 H   0  0  0  0  0  0  0  0  0  0  0  0
    2.6290    5.4750   -0.4680 C   0  0  0  0  0  0  0  0  0  0  0  0
   -3.3500    5.9290   -0.2620 N   0  0  0  0  0  0  0  0  0  0  0  0
    3.1570    5.7420    0.4510 H   0  0  0  0  0  0  0  0  0  0  0  0
    3.2710    4.7920   -1.0420 H   0  0  0  0  0  0  0  0  0  0  0  0
    2.5300    6.3460   -1.1240 H   0  0  0  0  0  0  0  0  0  0  0  0
    1.1130    7.9720    0.5360 C   0  0  0  0  0  0  0  0  0  0  0  0
    0.6900    9.3460    0.0330 C   0  0  1  0  0  0  0  0  0  0  0  0
   -0.7840    9.2610    0.0430 N   0  0  0  0  0  0  0  0  0  0  0  0
   -1.1010    7.8480    0.2350 N   0  0  0  0  0  0  0  0  0  0  0  0
    1.2130   10.5700    0.7610 C   0  0  0  0  0  0  0  0  0  0  0  0
   -1.9420    7.6270   -0.3090 H   0  0  0  0  0  0  0  0  0  0  0  0
   -1.1570    9.8440    0.8030 H   0  0  0  0  0  0  0  0  0  0  0  0
    2.1620    7.8070    0.2960 H   0  0  0  0  0  0  0  0  0  0  0  0
    1.0100    9.4630   -1.0110 H   0  0  0  0  0  0  0  0  0  0  0  0
    1.0150    7.8840    1.6290 H   0  0  0  0  0  0  0  0  0  0  0  0
    0.2000    7.2770   -1.2970 H   0  0  0  0  0  0  0  0  0  0  0  0
    0.3230   11.5880    0.7990 O   0  0  0  0  0  0  0  0  0  0  0  0
    2.3520   10.7320    1.1720 O   0  0  0  0  0  0  0  0  0  0  0  0
    0.8270   12.3640    1.1190 H   0  0  0  0  0  0  0  0  0  0  0  0
  1  5  1  0  0  0  0
  2  1  1  0  0  0  0
  3  2  2  0  0  0  0
  4  2  1  6  0  0  0
  4 10  5  0  0  0  0
  6  4  5  0  0  0  0
  6  7  5  0  0  0  0
  6 13  1  6  0  0  0
  7 12  1  6  0  0  0
  8  7  5  0  0  0  0
  8 11  1  6  0  0  0
  9  8  5  0  0  0  0
  9 15  1  6  0  0  0
 10  9  5  0  0  0  0
 10 14  1  0  0  0  0
 11 23  1  0  0  0  0
 11 30  1  6  0  0  0
 12 16  3  0  0  0  0
 15 17  1  0  0  0  0
 15 18  1  0  0  0  0
 15 19  1  0  0  0  0
 20 11  1  0  0  0  0
 20 27  1  0  0  0  0
 20 29  1  0  0  0  0
 21 20  1  0  0  0  0
 21 28  1  6  0  0  0
 22 21  1  0  0  0  0
 23 22  1  0  0  0  0
 24 21  1  0  0  0  0
 24 32  2  0  0  0  0
 25 23  1  0  0  0  0
 26 22  1  0  0  0  0
 31 24  1  0  0  0  0
 33 31  1  0  0  0  0
M  END
