28

O          0.37100       -0.09200       -0.45200
C         -0.39400        0.87300        0.08200
O         -1.41500        0.54300        0.68000
C         -0.06000        2.34000       -0.17100
H          1.15300        0.16100       -0.95600
C         -1.22900        2.97800       -0.34300
C         -1.33500        4.30200       -0.45500
C         -0.23100        5.05400       -0.43500
C          0.98100        4.45100       -0.31700
C          1.10300        3.08500       -0.16200
C         -0.35700        6.47400       -0.46900
H         -2.32800        4.75500       -0.54500
H         -2.16800        2.43600       -0.35700
C          2.54000        2.61200        0.08300
Br         2.54600        5.60400       -0.35100
C         -0.22600        7.66900       -0.41600
N          0.15000        8.94400       -0.30100
N         -0.82900        9.69200       -0.13200
C         -0.42100       10.99500        0.00300
C          2.86900        1.16800        0.35200
H          2.86500        0.62500       -0.59300
H          2.17900        0.74300        1.08000
H          3.88100        1.07100        0.74600
H          2.92900        3.16100        0.95700
H          3.16000        2.90700       -0.77800
O         -1.47200       11.83700        0.01500
O          0.71200       11.45100        0.10400
H         -1.03300       12.70600        0.10400
