25

O          1.26600        0.69000       -0.76200
C          0.27700        1.11400        0.04000
O         -0.35000        0.33600        0.73700
C          0.11500        2.59900        0.01900
H          1.44200       -0.23900       -0.49900
C         -1.12600        3.16000        0.01100
C         -1.21900        4.50700        0.10800
C         -0.13200        5.30800        0.18400
C          1.09300        4.73100        0.14800
C          1.22600        3.38300        0.08500
N         -0.26400        6.66200        0.37900
H         -2.20300        4.97600        0.14600
C         -2.43500        2.40500       -0.08200
C          2.54300        2.82200        0.15500
C          2.25400        5.57600        0.19800
H         -3.04800        2.59500        0.80700
H         -2.32600        1.32400       -0.18100
H         -2.99700        2.73800       -0.96300
N          3.20300        6.23400        0.20600
N         -0.63100        7.33700       -0.60500
C         -0.52700        8.67100       -0.30500
N          3.61300        2.38000        0.24500
O         -1.72400        9.29200       -0.32900
O          0.48000        9.30700       -0.03000
H         -1.48000       10.20500       -0.07300
