
 OpenBabel11042013083D

 34 35  0  0  1  0  0  0  0  0999 V2000
    1.3810   -0.0330    0.4000 O   0  0  0  0  0  0  0  0  0  0  0  0
    0.2710    0.4630   -0.1960 C   0  0  0  0  0  0  0  0  0  0  0  0
   -0.4700   -0.2380   -0.8660 O   0  0  0  0  0  0  0  0  0  0  0  0
    0.0910    1.9350   -0.0060 C   0  0  2  0  0  0  0  0  0  0  0  0
    1.8690    0.5900    0.9690 H   0  0  0  0  0  0  0  0  0  0  0  0
   -1.0740    2.5190    0.3470 C   0  0  2  0  0  0  0  0  0  0  0  0
   -1.1210    3.8860    0.4410 C   0  0  2  0  0  0  0  0  0  0  0  0
   -0.0150    4.6700    0.1500 C   0  0  1  0  0  0  0  0  0  0  0  0
    1.1770    4.0430   -0.1340 C   0  0  2  0  0  0  0  0  0  0  0  0
    1.1780    2.6910   -0.2260 C   0  0  0  0  0  0  0  0  0  0  0  0
   -0.1310    6.1660    0.1470 C   0  0  1  0  0  0  0  0  0  0  0  0
   -2.7650    4.6930    1.0660 Br  0  0  0  0  0  0  0  0  0  0  0  0
   -2.5910    1.4180    0.7170 Br  0  0  0  0  0  0  0  0  0  0  0  0
    2.1030    2.1860   -0.5050 H   0  0  0  0  0  0  0  0  0  0  0  0
    2.6050    4.5770   -0.3760 C   0  0  0  0  0  0  0  0  0  0  0  0
    3.0040    5.9870   -0.7710 C   0  0  0  0  0  0  0  0  0  0  0  0
    3.1390    6.6250    0.1050 H   0  0  0  0  0  0  0  0  0  0  0  0
    2.3100    6.4420   -1.4800 H   0  0  0  0  0  0  0  0  0  0  0  0
    3.9930    5.9510   -1.2470 H   0  0  0  0  0  0  0  0  0  0  0  0
    3.0490    3.9550   -1.1690 H   0  0  0  0  0  0  0  0  0  0  0  0
    3.1760    4.3340    0.5350 H   0  0  0  0  0  0  0  0  0  0  0  0
   -1.0650    6.7950   -0.6310 C   0  0  0  0  0  0  0  0  0  0  0  0
   -1.2120    8.1360   -0.6280 C   0  0  0  0  0  0  0  0  0  0  0  0
   -0.3680    8.8980    0.0960 C   0  0  1  0  0  0  0  0  0  0  0  0
    0.5730    8.3050    0.8450 C   0  0  0  0  0  0  0  0  0  0  0  0
    0.6610    6.9560    0.9050 C   0  0  0  0  0  0  0  0  0  0  0  0
   -0.4270   10.3830    0.0880 C   0  0  0  0  0  0  0  0  0  0  0  0
   -1.9980    8.5900   -1.2200 H   0  0  0  0  0  0  0  0  0  0  0  0
   -1.7570    6.2210   -1.2480 H   0  0  0  0  0  0  0  0  0  0  0  0
    1.4170    6.5130    1.5440 H   0  0  0  0  0  0  0  0  0  0  0  0
    1.2790    8.9020    1.4260 H   0  0  0  0  0  0  0  0  0  0  0  0
   -1.6410   10.8660   -0.2340 O   0  0  0  0  0  0  0  0  0  0  0  0
    0.4910   11.1370    0.3650 O   0  0  0  0  0  0  0  0  0  0  0  0
   -1.5280   11.8350   -0.1630 H   0  0  0  0  0  0  0  0  0  0  0  0
  1  5  1  0  0  0  0
  2  1  1  0  0  0  0
  3  2  2  0  0  0  0
  4  2  1  6  0  0  0
  4 10  5  0  0  0  0
  6  4  5  0  0  0  0
  6  7  5  0  0  0  0
  6 13  1  1  0  0  0
  7 12  1  1  0  0  0
  8  7  5  0  0  0  0
  8 11  1  6  0  0  0
  9  8  5  0  0  0  0
  9 15  1  1  0  0  0
 10  9  5  0  0  0  0
 10 14  1  0  0  0  0
 11 22  5  1  0  0  0
 11 26  5  0  0  0  0
 15 20  1  0  0  0  0
 15 21  1  0  0  0  0
 16 17  1  0  0  0  0
 16 18  1  0  0  0  0
 16 19  1  0  0  0  0
 16 15  1  0  0  0  0
 22 23  5  0  0  0  0
 22 29  1  0  0  0  0
 23 28  1  0  0  0  0
 24 23  5  0  0  0  0
 24 27  1  6  0  0  0
 25 24  5  0  0  0  0
 25 31  1  0  0  0  0
 26 25  5  0  0  0  0
 26 30  1  0  0  0  0
 27 33  2  0  0  0  0
 32 27  1  0  0  0  0
 34 32  1  0  0  0  0
M  END
