34

O          1.38100       -0.03300        0.40000
C          0.27100        0.46300       -0.19600
O         -0.47000       -0.23800       -0.86600
C          0.09100        1.93500       -0.00600
H          1.86900        0.59000        0.96900
C         -1.07400        2.51900        0.34700
C         -1.12100        3.88600        0.44100
C         -0.01500        4.67000        0.15000
C          1.17700        4.04300       -0.13400
C          1.17800        2.69100       -0.22600
C         -0.13100        6.16600        0.14700
Br        -2.76500        4.69300        1.06600
Br        -2.59100        1.41800        0.71700
H          2.10300        2.18600       -0.50500
C          2.60500        4.57700       -0.37600
C          3.00400        5.98700       -0.77100
H          3.13900        6.62500        0.10500
H          2.31000        6.44200       -1.48000
H          3.99300        5.95100       -1.24700
H          3.04900        3.95500       -1.16900
H          3.17600        4.33400        0.53500
C         -1.06500        6.79500       -0.63100
C         -1.21200        8.13600       -0.62800
C         -0.36800        8.89800        0.09600
C          0.57300        8.30500        0.84500
C          0.66100        6.95600        0.90500
C         -0.42700       10.38300        0.08800
H         -1.99800        8.59000       -1.22000
H         -1.75700        6.22100       -1.24800
H          1.41700        6.51300        1.54400
H          1.27900        8.90200        1.42600
O         -1.64100       10.86600       -0.23400
O          0.49100       11.13700        0.36500
H         -1.52800       11.83500       -0.16300
