49

O          0.55700       -0.02000        0.92800
C          0.03200        0.91200        1.76200
O         -0.49100        0.62200        2.82500
C          0.01800        2.28400        1.15100
H          0.86300        0.34500        0.07400
C         -1.16800        2.89900        1.19200
C         -1.30400        4.12700        0.67200
C         -0.31100        4.70000       -0.04400
C          0.84900        3.98100       -0.20100
C          1.09200        2.86900        0.56300
C         -0.45400        6.11900       -0.66300
H         -2.26900        4.61800        0.80600
H         -2.02400        2.43300        1.69400
C          2.50100        2.34100        0.91700
C          1.77200        4.34500       -1.35000
C          3.75600        2.68800        0.12800
H          3.75500        2.20000       -0.84900
H          4.63600        2.32600        0.67100
H          3.89100        3.76500        0.01500
H          2.68200        2.74900        1.92500
H          2.51900        1.25800        1.05300
O          0.62100        6.97100       -0.15500
C         -1.39000        7.79700        0.74900
C         -1.73000        6.92700       -0.43300
C          0.33400        9.40700       -0.36200
H         -2.64100        6.34200       -0.29700
H         -1.47900        7.21100        1.67200
H         -2.05400        8.65800        0.85500
H         -1.90400        7.56900       -1.30500
H          0.58300        8.25300        1.47900
C          0.07400        8.14200        0.51400
H         -0.32200        6.03800       -1.74700
C          1.64100       10.13000       -0.02200
C          1.45700       11.52500       -0.61300
N         -0.00600       11.66100       -0.82600
N         -0.62400       10.51200       -0.19700
C          1.99400       12.64800        0.27600
H         -1.50400       10.27700       -0.66500
H         -0.30900       12.54800       -0.39700
H          2.50800        9.62400       -0.45900
H          1.95300       11.61600       -1.58600
H          1.79300       10.18800        1.06400
H          0.36600        9.11000       -1.42000
H          2.24100        3.44200       -1.75900
H          1.19400        4.69200       -2.21600
H          2.51900        5.09000       -1.09600
O          1.16600       13.71700        0.36800
O          3.08500       12.67800        0.82600
H          1.66400       14.36100        0.91600
