38

O          1.75600       -0.32100        0.19500
C          0.56800        0.30800        0.23400
O         -0.44300       -0.35500        0.43600
C          0.55000        1.80900        0.01800
H          2.52600        0.21200       -0.02800
C         -0.72300        2.24900       -0.11300
C         -1.02400        3.54100       -0.31800
C         -0.05700        4.49100       -0.37100
C          1.21800        4.04100       -0.23500
C          1.55100        2.73300       -0.05900
C         -0.36100        5.99500       -0.55700
N         -2.41700        3.80400       -0.50100
H         -1.55700        1.54800       -0.07700
C          3.02800        2.43000        0.03700
H          2.01700        4.78400       -0.28100
O          0.75200        6.88900       -0.24600
C         -1.25300        7.98200        0.35300
C         -1.52700        6.51600        0.28600
C          0.86000        9.32500        0.10300
H         -2.50900        6.35100       -0.16000
H         -1.55500        8.43700       -0.60200
H         -1.79500        8.48200        1.16000
H         -1.51700        6.08800        1.29500
H          0.53000        7.81400        1.56600
C          0.25300        8.00900        0.52300
H         -0.56700        6.15900       -1.62200
H         -2.60200        4.61300       -1.08600
H         -2.84400        4.01800        0.40200
H          3.33900        1.72700       -0.74200
H          3.64800        3.31800       -0.12800
H          3.28300        2.04000        1.02800
C          0.17300       10.48400        0.11900
C          0.73400       11.78700       -0.25200
H         -0.86500       10.52800        0.43200
H          1.91000        9.31900       -0.18300
O         -0.21900       12.72900       -0.12900
O          1.87100       12.03400       -0.61400
H          0.22200       13.56500       -0.38500
