
 OpenBabel11042013043D

 27 27  0  0  1  0  0  0  0  0999 V2000
    1.4320    0.2050    0.0340 O   0  0  0  0  0  0  0  0  0  0  0  0
    0.2510    0.8540    0.0870 C   0  0  0  0  0  0  0  0  0  0  0  0
   -0.8010    0.2300    0.1160 O   0  0  0  0  0  0  0  0  0  0  0  0
    0.3100    2.3540    0.0890 C   0  0  2  0  0  0  0  0  0  0  0  0
    2.2500    0.7240    0.0010 H   0  0  0  0  0  0  0  0  0  0  0  0
   -0.8710    3.0020    0.1390 C   0  0  0  0  0  0  0  0  0  0  0  0
   -0.9500    4.3510    0.1150 C   0  0  1  0  0  0  0  0  0  0  0  0
    0.1770    5.1260    0.0570 C   0  0  2  0  0  0  0  0  0  0  0  0
    1.3700    4.4500   -0.0090 C   0  0  1  0  0  0  0  0  0  0  0  0
    1.4290    3.0970    0.0170 C   0  0  0  0  0  0  0  0  0  0  0  0
    0.2220    6.6200    0.0760 C   0  0  0  0  0  0  0  0  0  0  0  0
   -2.2780    4.8770    0.1340 N   0  0  0  0  0  0  0  0  0  0  0  0
   -1.7870    2.4120    0.1840 H   0  0  0  0  0  0  0  0  0  0  0  0
    2.4100    2.6360   -0.0320 H   0  0  0  0  0  0  0  0  0  0  0  0
    2.6360    5.1160   -0.1500 C   0  0  0  0  0  0  0  0  0  0  0  0
    3.6690    5.6200   -0.2990 N   0  0  0  0  0  0  0  0  0  0  0  0
   -0.7360    7.5620    0.1090 C   0  0  0  0  0  0  0  0  0  0  0  0
   -0.4090    8.9520    0.0980 C   0  0  0  0  0  0  0  0  0  0  0  0
   -1.7920    7.3500    0.1440 H   0  0  0  0  0  0  0  0  0  0  0  0
    1.2280    7.0440    0.0910 H   0  0  0  0  0  0  0  0  0  0  0  0
   -2.4270    5.6660   -0.4840 H   0  0  0  0  0  0  0  0  0  0  0  0
   -3.0240    4.2010   -0.0130 H   0  0  0  0  0  0  0  0  0  0  0  0
   -0.1920   10.1350    0.0760 C   0  0  0  0  0  0  0  0  0  0  0  0
   -0.0000   11.5550    0.0380 C   0  0  0  0  0  0  0  0  0  0  0  0
   -1.1540   12.2500    0.0030 O   0  0  0  0  0  0  0  0  0  0  0  0
    1.0910   12.0960    0.0310 O   0  0  0  0  0  0  0  0  0  0  0  0
   -0.8590   13.1830   -0.0230 H   0  0  0  0  0  0  0  0  0  0  0  0
  1  5  1  0  0  0  0
  2  1  1  0  0  0  0
  3  2  2  0  0  0  0
  4  2  1  6  0  0  0
  4 10  5  0  0  0  0
  6  4  5  0  0  0  0
  6  7  5  0  0  0  0
  6 13  1  0  0  0  0
  7 12  1  6  0  0  0
  8  7  5  0  0  0  0
  8 11  1  1  0  0  0
  9  8  5  0  0  0  0
  9 15  1  6  0  0  0
 10  9  5  0  0  0  0
 10 14  1  0  0  0  0
 11 20  1  0  0  0  0
 12 21  1  0  0  0  0
 12 22  1  0  0  0  0
 15 16  3  0  0  0  0
 17 11  2  0  0  0  0
 17 19  1  0  0  0  0
 18 17  1  0  0  0  0
 23 18  3  0  0  0  0
 24 23  1  0  0  0  0
 24 26  2  0  0  0  0
 25 24  1  0  0  0  0
 27 25  1  0  0  0  0
M  END
