27

O          1.43200        0.20500        0.03400
C          0.25100        0.85400        0.08700
O         -0.80100        0.23000        0.11600
C          0.31000        2.35400        0.08900
H          2.25000        0.72400        0.00100
C         -0.87100        3.00200        0.13900
C         -0.95000        4.35100        0.11500
C          0.17700        5.12600        0.05700
C          1.37000        4.45000       -0.00900
C          1.42900        3.09700        0.01700
C          0.22200        6.62000        0.07600
N         -2.27800        4.87700        0.13400
H         -1.78700        2.41200        0.18400
H          2.41000        2.63600       -0.03200
C          2.63600        5.11600       -0.15000
N          3.66900        5.62000       -0.29900
C         -0.73600        7.56200        0.10900
C         -0.40900        8.95200        0.09800
H         -1.79200        7.35000        0.14400
H          1.22800        7.04400        0.09100
H         -2.42700        5.66600       -0.48400
H         -3.02400        4.20100       -0.01300
C         -0.19200       10.13500        0.07600
C         -0.00000       11.55500        0.03800
O         -1.15400       12.25000        0.00300
O          1.09100       12.09600        0.03100
H         -0.85900       13.18300       -0.02300
