
 OpenBabel11042013083D

 36 37  0  0  1  0  0  0  0  0999 V2000
    1.2580   -0.3890    0.5140 O   0  0  0  0  0  0  0  0  0  0  0  0
    0.1680    0.1970   -0.0170 C   0  0  0  0  0  0  0  0  0  0  0  0
   -0.8170   -0.4700   -0.3070 O   0  0  0  0  0  0  0  0  0  0  0  0
    0.2230    1.6950   -0.1650 C   0  0  2  0  0  0  0  0  0  0  0  0
    1.9000    0.2180    0.9120 H   0  0  0  0  0  0  0  0  0  0  0  0
   -1.0080    2.2610   -0.2100 C   0  0  0  0  0  0  0  0  0  0  0  0
   -1.1650    3.5890   -0.3270 C   0  0  0  0  0  0  0  0  0  0  0  0
   -0.0920    4.4030   -0.4040 C   0  0  2  0  0  0  0  0  0  0  0  0
    1.1320    3.8310   -0.3920 C   0  0  0  0  0  0  0  0  0  0  0  0
    1.3220    2.4950   -0.2680 C   0  0  2  0  0  0  0  0  0  0  0  0
   -0.2720    5.7720   -0.4450 N   0  0  0  0  0  0  0  0  0  0  0  0
   -2.1630    4.0150   -0.3490 H   0  0  0  0  0  0  0  0  0  0  0  0
   -1.9090    1.6510   -0.1440 H   0  0  0  0  0  0  0  0  0  0  0  0
    2.7580    2.0300   -0.2870 C   0  0  0  0  0  0  0  0  0  0  0  0
    1.9950    4.4920   -0.4750 H   0  0  0  0  0  0  0  0  0  0  0  0
    0.4620    6.3840    0.3570 N   0  0  0  0  0  0  0  0  0  0  0  0
    0.1950    7.8020    0.5860 C   0  0  1  0  0  0  0  0  0  0  0  0
    1.0600    8.7810   -0.0330 O   0  0  0  0  0  0  0  0  0  0  0  0
   -1.0380    9.8020    0.2730 C   0  0  0  0  0  0  0  0  0  0  0  0
   -1.2020    8.2930    0.2390 C   0  0  0  0  0  0  0  0  0  0  0  0
    0.9030   11.1970   -0.3290 C   0  0  0  0  0  0  0  0  0  0  0  0
   -1.9650    7.9360    0.9370 H   0  0  0  0  0  0  0  0  0  0  0  0
   -1.4560   10.2460   -0.6390 H   0  0  0  0  0  0  0  0  0  0  0  0
   -1.5560   10.2630    1.1200 H   0  0  0  0  0  0  0  0  0  0  0  0
   -1.5000    7.9930   -0.7720 H   0  0  0  0  0  0  0  0  0  0  0  0
    0.7430   10.1490    1.4470 H   0  0  0  0  0  0  0  0  0  0  0  0
    0.4690   10.0140    0.3920 C   0  0  2  0  0  0  0  0  0  0  0  0
    0.3320    7.9240    1.6700 H   0  0  0  0  0  0  0  0  0  0  0  0
    2.8850    1.1260   -0.8880 H   0  0  0  0  0  0  0  0  0  0  0  0
    3.1120    1.8520    0.7350 H   0  0  0  0  0  0  0  0  0  0  0  0
    3.4270    2.7830   -0.7220 H   0  0  0  0  0  0  0  0  0  0  0  0
    1.0180   12.3440   -0.6630 C   0  0  0  0  0  0  0  0  0  0  0  0
    0.9010   13.7650   -0.8020 C   0  0  0  0  0  0  0  0  0  0  0  0
   -0.3450   14.2050   -0.5400 O   0  0  0  0  0  0  0  0  0  0  0  0
    1.8310   14.5140   -1.0410 O   0  0  0  0  0  0  0  0  0  0  0  0
   -0.2700   15.1780   -0.5770 H   0  0  0  0  0  0  0  0  0  0  0  0
  1  5  1  0  0  0  0
  2  1  1  0  0  0  0
  3  2  2  0  0  0  0
  4  2  1  6  0  0  0
  4 10  5  0  0  0  0
  6  4  5  0  0  0  0
  6  7  5  0  0  0  0
  6 13  1  0  0  0  0
  7 12  1  0  0  0  0
  8  7  5  0  0  0  0
  8 11  1  1  0  0  0
  9  8  5  0  0  0  0
  9 15  1  0  0  0  0
 10  9  5  0  0  0  0
 10 14  1  6  0  0  0
 14 29  1  0  0  0  0
 14 30  1  0  0  0  0
 14 31  1  0  0  0  0
 16 11  2  0  0  0  0
 17 16  1  0  0  0  0
 17 20  1  0  0  0  0
 17 28  1  1  0  0  0
 18 17  1  0  0  0  0
 19 27  1  0  0  0  0
 19 24  1  0  0  0  0
 20 19  1  0  0  0  0
 20 25  1  0  0  0  0
 21 27  1  0  0  0  0
 22 20  1  0  0  0  0
 23 19  1  0  0  0  0
 27 18  1  0  0  0  0
 27 26  1  1  0  0  0
 32 21  3  0  0  0  0
 33 32  1  0  0  0  0
 33 35  2  0  0  0  0
 34 33  1  0  0  0  0
 36 34  1  0  0  0  0
M  END
