30

O          0.94600        0.21800        0.14900
C         -0.25600        0.72500       -0.22200
O         -1.14600       -0.05700       -0.50300
C         -0.29900        2.22000       -0.17800
H          0.76800       -0.74900        0.14700
C         -1.50300        2.84500       -0.18300
C         -1.55600        4.19000       -0.08400
C         -0.44500        4.95500        0.05300
C          0.74600        4.31000        0.03300
C          0.83300        2.96500       -0.09000
C         -0.60200        6.44800        0.32600
H         -2.53200        4.67100       -0.07300
O         -2.68600        2.13100       -0.24200
O          2.11600        2.41100       -0.08800
N          1.98000        5.03400        0.21900
H         -3.48000        2.67400       -0.11100
H          2.66700        4.36400        0.59000
H          2.39000        5.20000       -0.70500
H          2.08000        1.43300       -0.05500
C          0.51300        7.42600        0.02600
N         -0.27000        8.62000       -0.13200
N         -1.55800        8.34200       -0.47500
N         -1.74200        7.09200       -0.39300
C          0.20800        9.88300        0.07700
H          1.01700        7.24900       -0.93000
H          1.24200        7.53800        0.83300
H         -0.84100        6.52800        1.39700
O         -0.72400       10.85200       -0.02500
O          1.35700       10.18700        0.36900
H         -0.22600       11.66600        0.19800
