
 OpenBabel11042013083D

 23 23  0  0  1  0  0  0  0  0999 V2000
    1.3490    0.3790    0.1070 O   0  0  0  0  0  0  0  0  0  0  0  0
    0.1450    0.9990    0.1020 C   0  0  0  0  0  0  0  0  0  0  0  0
   -0.8790    0.3350    0.0500 O   0  0  0  0  0  0  0  0  0  0  0  0
    0.1800    2.4970    0.0730 C   0  0  2  0  0  0  0  0  0  0  0  0
    2.1310    0.9640    0.1060 H   0  0  0  0  0  0  0  0  0  0  0  0
   -0.9780    3.2090    0.0660 C   0  0  1  0  0  0  0  0  0  0  0  0
   -0.9430    4.5470   -0.0640 C   0  0  0  0  0  0  0  0  0  0  0  0
    0.2280    5.2140   -0.1900 C   0  0  1  0  0  0  0  0  0  0  0  0
    1.3700    4.5060   -0.1340 C   0  0  0  0  0  0  0  0  0  0  0  0
    1.3470    3.1740    0.0020 C   0  0  2  0  0  0  0  0  0  0  0  0
    0.2990    6.5600   -0.3930 N   0  0  0  0  0  0  0  0  0  0  0  0
   -1.8790    5.1050   -0.0760 H   0  0  0  0  0  0  0  0  0  0  0  0
   -2.2190    2.6170    0.1870 O   0  0  0  0  0  0  0  0  0  0  0  0
    2.5360    2.5310    0.0360 F   0  0  0  0  0  0  0  0  0  0  0  0
    2.3220    5.0250   -0.2130 H   0  0  0  0  0  0  0  0  0  0  0  0
   -0.0160    7.2480    0.5940 N   0  0  0  0  0  0  0  0  0  0  0  0
    0.3350    8.5630    0.3570 N   0  0  0  0  0  0  0  0  0  0  0  0
   -2.6610    2.5320   -0.6760 H   0  0  0  0  0  0  0  0  0  0  0  0
   -0.6610    9.2010   -0.0260 N   0  0  0  0  0  0  0  0  0  0  0  0
   -0.3860   10.5390   -0.0740 C   0  0  0  0  0  0  0  0  0  0  0  0
   -1.5250   11.2520   -0.1020 O   0  0  0  0  0  0  0  0  0  0  0  0
    0.6960   11.1180   -0.0570 O   0  0  0  0  0  0  0  0  0  0  0  0
   -1.1950   12.1710   -0.0540 H   0  0  0  0  0  0  0  0  0  0  0  0
  1  5  1  0  0  0  0
  2  1  1  0  0  0  0
  3  2  2  0  0  0  0
  4  2  1  6  0  0  0
  4 10  5  0  0  0  0
  6  4  5  0  0  0  0
  6  7  5  0  0  0  0
  6 13  1  6  0  0  0
  7 12  1  0  0  0  0
  8  7  5  0  0  0  0
  8 11  1  6  0  0  0
  9  8  5  0  0  0  0
  9 15  1  0  0  0  0
 10  9  5  0  0  0  0
 10 14  1  6  0  0  0
 13 18  1  0  0  0  0
 16 11  2  0  0  0  0
 17 16  1  0  0  0  0
 19 17  2  0  0  0  0
 20 19  1  0  0  0  0
 20 22  2  0  0  0  0
 21 20  1  0  0  0  0
 23 21  1  0  0  0  0
M  END
