32

O          1.35300        0.49100        0.20400
C          0.15200        1.07200       -0.01700
O         -0.79300        0.36100       -0.32900
C          0.08500        2.58600        0.06400
H          2.11100        1.03400        0.46300
C         -1.10500        3.24400        0.02800
C         -1.11300        4.61100       -0.09900
C          0.04700        5.36600       -0.08600
C          1.21500        4.67000        0.05300
C          1.21200        3.32100        0.09000
C         -0.00400        6.91100       -0.34400
Br        -2.82400        5.43400       -0.44700
C         -2.40600        2.44400        0.12900
H          2.18600        2.84200        0.11000
Br         2.96200        5.40300        0.10900
H         -3.26300        3.02100        0.48600
H         -2.67000        2.00700       -0.83900
H         -2.32400        1.65600        0.88700
C          1.13200        7.91500       -0.09800
C          0.47600        9.24800       -0.45700
N         -0.95500        9.02900       -0.16300
N         -1.03700        7.68500        0.38600
C          1.01700       10.46600        0.27000
H         -1.95800        7.28500        0.18100
H         -1.28300        9.75100        0.49000
H          1.99200        7.77100       -0.75500
H          0.58700        9.43800       -1.53100
H          1.46700        7.90600        0.94900
H         -0.22700        6.96400       -1.42400
O          0.08900       11.44400        0.42000
O          2.17400       10.66200        0.61000
H          0.58500       12.21000        0.77700
