
 OpenBabel11042013083D

 32 33  0  0  1  0  0  0  0  0999 V2000
    1.3530    0.4910    0.2040 O   0  0  0  0  0  0  0  0  0  0  0  0
    0.1520    1.0720   -0.0170 C   0  0  0  0  0  0  0  0  0  0  0  0
   -0.7930    0.3610   -0.3290 O   0  0  0  0  0  0  0  0  0  0  0  0
    0.0850    2.5860    0.0640 C   0  0  2  0  0  0  0  0  0  0  0  0
    2.1110    1.0340    0.4630 H   0  0  0  0  0  0  0  0  0  0  0  0
   -1.1050    3.2440    0.0280 C   0  0  1  0  0  0  0  0  0  0  0  0
   -1.1130    4.6110   -0.0990 C   0  0  1  0  0  0  0  0  0  0  0  0
    0.0470    5.3660   -0.0860 C   0  0  1  0  0  0  0  0  0  0  0  0
    1.2150    4.6700    0.0530 C   0  0  1  0  0  0  0  0  0  0  0  0
    1.2120    3.3210    0.0900 C   0  0  0  0  0  0  0  0  0  0  0  0
   -0.0040    6.9110   -0.3440 C   0  0  2  0  0  0  0  0  0  0  0  0
   -2.8240    5.4340   -0.4470 Br  0  0  0  0  0  0  0  0  0  0  0  0
   -2.4060    2.4440    0.1290 C   0  0  0  0  0  0  0  0  0  0  0  0
    2.1860    2.8420    0.1100 H   0  0  0  0  0  0  0  0  0  0  0  0
    2.9620    5.4030    0.1090 Br  0  0  0  0  0  0  0  0  0  0  0  0
   -3.2630    3.0210    0.4860 H   0  0  0  0  0  0  0  0  0  0  0  0
   -2.6700    2.0070   -0.8390 H   0  0  0  0  0  0  0  0  0  0  0  0
   -2.3240    1.6560    0.8870 H   0  0  0  0  0  0  0  0  0  0  0  0
    1.1320    7.9150   -0.0980 C   0  0  0  0  0  0  0  0  0  0  0  0
    0.4760    9.2480   -0.4570 C   0  0  1  0  0  0  0  0  0  0  0  0
   -0.9550    9.0290   -0.1630 N   0  0  0  0  0  0  0  0  0  0  0  0
   -1.0370    7.6850    0.3860 N   0  0  0  0  0  0  0  0  0  0  0  0
    1.0170   10.4660    0.2700 C   0  0  0  0  0  0  0  0  0  0  0  0
   -1.9580    7.2850    0.1810 H   0  0  0  0  0  0  0  0  0  0  0  0
   -1.2830    9.7510    0.4900 H   0  0  0  0  0  0  0  0  0  0  0  0
    1.9920    7.7710   -0.7550 H   0  0  0  0  0  0  0  0  0  0  0  0
    0.5870    9.4380   -1.5310 H   0  0  0  0  0  0  0  0  0  0  0  0
    1.4670    7.9060    0.9490 H   0  0  0  0  0  0  0  0  0  0  0  0
   -0.2270    6.9640   -1.4240 H   0  0  0  0  0  0  0  0  0  0  0  0
    0.0890   11.4440    0.4200 O   0  0  0  0  0  0  0  0  0  0  0  0
    2.1740   10.6620    0.6100 O   0  0  0  0  0  0  0  0  0  0  0  0
    0.5850   12.2100    0.7770 H   0  0  0  0  0  0  0  0  0  0  0  0
  1  5  1  0  0  0  0
  2  1  1  0  0  0  0
  3  2  2  0  0  0  0
  4  2  1  6  0  0  0
  4 10  5  0  0  0  0
  6  4  5  0  0  0  0
  6  7  5  0  0  0  0
  6 13  1  6  0  0  0
  7 12  1  6  0  0  0
  8  7  5  0  0  0  0
  8 11  1  6  0  0  0
  9  8  5  0  0  0  0
  9 15  1  6  0  0  0
 10  9  5  0  0  0  0
 10 14  1  0  0  0  0
 11 22  1  0  0  0  0
 11 29  1  6  0  0  0
 13 16  1  0  0  0  0
 13 17  1  0  0  0  0
 13 18  1  0  0  0  0
 19 11  1  0  0  0  0
 19 26  1  0  0  0  0
 19 28  1  0  0  0  0
 20 19  1  0  0  0  0
 20 27  1  6  0  0  0
 21 20  1  0  0  0  0
 22 21  1  0  0  0  0
 23 20  1  0  0  0  0
 23 31  2  0  0  0  0
 24 22  1  0  0  0  0
 25 21  1  0  0  0  0
 30 23  1  0  0  0  0
 32 30  1  0  0  0  0
M  END
