59

O          1.67300       -0.53500       -0.33600
C          0.46800        0.00800       -0.61300
O         -0.48700       -0.69100       -0.92300
C          0.38600        1.49500       -0.43600
H          2.31500        0.06900        0.07100
C         -0.85200        1.99700       -0.26700
C         -1.03300        3.31000       -0.03400
C          0.01000        4.17700        0.04000
C          1.24500        3.67100       -0.19300
C          1.43500        2.35200       -0.43100
C         -0.21400        5.63300        0.48600
H         -2.05600        3.63800        0.12600
H         -1.72400        1.34200       -0.28700
H          2.45000        2.00700       -0.59900
H          2.10900        4.33400       -0.15300
O          0.59800        6.70400       -0.09400
C         -1.47000        7.64500        0.58100
C         -1.62800        6.16700        0.32200
C          0.29900        9.32500       -0.03500
H         -2.34700        5.70800        1.00700
H         -1.86400        7.93000        1.56200
H         -2.03700        8.20800       -0.16900
H         -1.98500        6.01300       -0.70500
H          0.43600        7.90600        1.54200
C          0.04400        7.90700        0.51500
H          0.03000        5.62400        1.56000
C          1.65800        9.97900       -0.05000
N          1.42000       11.01000       -1.07900
N          0.42800       10.52300       -1.93400
N         -0.10500        9.48600       -1.44700
C          1.27400       12.45000       -0.80300
H          1.98600       10.40800        0.89900
H          2.42500        9.30400       -0.44700
H         -0.35300        9.98000        0.56400
C          2.41400       13.27600       -0.21400
C          1.68600       14.48200        0.44200
N          0.26500       14.06500        0.49200
N          0.21900       12.66000        0.18900
C          1.82900       15.86000       -0.29100
H         -0.66200       12.39400       -0.26000
H         -0.12500       14.27800        1.41500
H          2.94600       12.70600        0.55900
H          2.07300       14.59500        1.46400
H          3.14200       13.57900       -0.97300
H          0.98900       12.91800       -1.75600
O          2.95900       16.62300        0.21200
C          1.20200       18.15900       -0.19800
C          0.62100       16.78000       -0.09300
C          3.48800       19.10500        0.01300
H         -0.16900       16.60100       -0.82700
H          1.31100       18.45300       -1.24900
H          0.58600       18.91900        0.29700
H          0.19300       16.66500        0.91000
H          2.46400       18.07300        1.55900
C          2.55300       17.98300        0.46800
H          2.00200       15.71000       -1.36300
O          2.97600       20.33500        0.27200
O          4.58100       19.00000       -0.51200
H          3.64600       20.96200       -0.07300
