40

O          1.32200       -1.07000        0.04000
C          0.11600       -0.46500        0.06900
O         -0.91300       -1.12400        0.13600
C          0.12700        1.03100        0.01600
H          2.10000       -0.49900       -0.04700
C         -1.07500        1.64200       -0.00100
C         -1.17300        2.98500       -0.04100
C         -0.07800        3.78700       -0.07700
C          1.12000        3.14700       -0.05000
C          1.23100        1.80600       -0.00800
C         -0.16800        5.28000       -0.08400
H         -2.18000        3.39400       -0.04200
H         -1.99200        1.05700        0.02800
H          2.23800        1.40300        0.02900
H          2.06300        3.68100       -0.05200
C         -1.34500        5.96000       -0.06300
C         -1.39400        7.30500        0.02900
C         -0.26300        8.03900        0.10800
C          0.91000        7.37900        0.02100
C          0.95200        6.04400       -0.07700
C         -0.30800        9.52600        0.36600
H         -2.36600        7.79400        0.07700
H         -2.30200        5.44900       -0.08900
H          1.94900        5.62400       -0.11700
H          1.86600        7.89100        0.06500
C          1.00600       10.26500        0.29800
N          0.50700       11.54600       -0.05300
N         -0.67900       11.46600       -0.72500
N         -1.13500       10.29200       -0.60200
N          1.28200       12.64200        0.02300
H          1.56800       10.27100        1.23400
H          1.64300        9.95300       -0.53800
H         -0.74800        9.67800        1.36400
N          1.14300       13.36000       -0.98100
C          1.10400       14.64200       -0.61000
C          0.79300       15.74800       -0.28000
C          0.12700       16.95300        0.08000
O         -1.20900       16.80900        0.11600
O          0.68900       18.00600        0.31900
H         -1.54800       17.69500        0.34300
