37

O          1.35400       -0.96500        0.14800
C          0.18200       -0.30500        0.22800
O         -0.87900       -0.90900        0.29200
C          0.27200        1.18900        0.16400
H          2.15500       -0.43400        0.02300
C         -0.90700        1.81400        0.00500
C         -0.96700        3.14500       -0.15500
C          0.15600        3.92200       -0.09900
C          1.34900        3.28700        0.07800
C          1.39100        1.93600        0.20600
C         -0.05500        5.42900       -0.28700
O         -2.20500        3.70300       -0.43500
H         -1.83200        1.24100       -0.02100
H          2.36300        1.47200        0.33400
Br         3.03100        4.15100        0.07400
H         -2.91800        3.05400       -0.54700
C          0.92000        6.53900        0.08900
N         -0.03600        7.60400        0.27900
N         -1.24700        7.10800        0.65200
N         -1.24300        5.87000        0.50100
C          0.11000        8.97100        0.15800
H          1.63300        6.77000       -0.70700
H          1.42100        6.37900        1.04800
H         -0.30200        5.56500       -1.35200
C         -1.00000        9.74200        0.14300
C         -0.93500       11.07500        0.04500
C          0.26600       11.68000       -0.03700
C          1.39200       10.93200       -0.04100
C          1.31200        9.58300        0.04200
C          0.35000       13.15700       -0.10200
H         -1.86200       11.64200        0.03900
H         -1.99100        9.29800        0.20000
H          2.23300        9.01100        0.04500
H          2.36800       11.40700       -0.11400
O         -0.85200       13.76100       -0.07200
O          1.37500       13.81800       -0.16000
H         -0.64300       14.71700       -0.09200
