
 OpenBabel11042013083D

 37 39  0  0  1  0  0  0  0  0999 V2000
    1.3540   -0.9650    0.1480 O   0  0  0  0  0  0  0  0  0  0  0  0
    0.1820   -0.3050    0.2280 C   0  0  0  0  0  0  0  0  0  0  0  0
   -0.8790   -0.9090    0.2920 O   0  0  0  0  0  0  0  0  0  0  0  0
    0.2720    1.1890    0.1640 C   0  0  2  0  0  0  0  0  0  0  0  0
    2.1550   -0.4340    0.0230 H   0  0  0  0  0  0  0  0  0  0  0  0
   -0.9070    1.8140    0.0050 C   0  0  0  0  0  0  0  0  0  0  0  0
   -0.9670    3.1450   -0.1550 C   0  0  1  0  0  0  0  0  0  0  0  0
    0.1560    3.9220   -0.0990 C   0  0  1  0  0  0  0  0  0  0  0  0
    1.3490    3.2870    0.0780 C   0  0  1  0  0  0  0  0  0  0  0  0
    1.3910    1.9360    0.2060 C   0  0  0  0  0  0  0  0  0  0  0  0
   -0.0550    5.4290   -0.2870 C   0  0  2  0  0  0  0  0  0  0  0  0
   -2.2050    3.7030   -0.4350 O   0  0  0  0  0  0  0  0  0  0  0  0
   -1.8320    1.2410   -0.0210 H   0  0  0  0  0  0  0  0  0  0  0  0
    2.3630    1.4720    0.3340 H   0  0  0  0  0  0  0  0  0  0  0  0
    3.0310    4.1510    0.0740 Br  0  0  0  0  0  0  0  0  0  0  0  0
   -2.9180    3.0540   -0.5470 H   0  0  0  0  0  0  0  0  0  0  0  0
    0.9200    6.5390    0.0890 C   0  0  0  0  0  0  0  0  0  0  0  0
   -0.0360    7.6040    0.2790 N   0  0  0  0  0  0  0  0  0  0  0  0
   -1.2470    7.1080    0.6520 N   0  0  0  0  0  0  0  0  0  0  0  0
   -1.2430    5.8700    0.5010 N   0  0  0  0  0  0  0  0  0  0  0  0
    0.1100    8.9710    0.1580 C   0  0  2  0  0  0  0  0  0  0  0  0
    1.6330    6.7700   -0.7070 H   0  0  0  0  0  0  0  0  0  0  0  0
    1.4210    6.3790    1.0480 H   0  0  0  0  0  0  0  0  0  0  0  0
   -0.3020    5.5650   -1.3520 H   0  0  0  0  0  0  0  0  0  0  0  0
   -1.0000    9.7420    0.1430 C   0  0  0  0  0  0  0  0  0  0  0  0
   -0.9350   11.0750    0.0450 C   0  0  0  0  0  0  0  0  0  0  0  0
    0.2660   11.6800   -0.0370 C   0  0  2  0  0  0  0  0  0  0  0  0
    1.3920   10.9320   -0.0410 C   0  0  0  0  0  0  0  0  0  0  0  0
    1.3120    9.5830    0.0420 C   0  0  0  0  0  0  0  0  0  0  0  0
    0.3500   13.1570   -0.1020 C   0  0  0  0  0  0  0  0  0  0  0  0
   -1.8620   11.6420    0.0390 H   0  0  0  0  0  0  0  0  0  0  0  0
   -1.9910    9.2980    0.2000 H   0  0  0  0  0  0  0  0  0  0  0  0
    2.2330    9.0110    0.0450 H   0  0  0  0  0  0  0  0  0  0  0  0
    2.3680   11.4070   -0.1140 H   0  0  0  0  0  0  0  0  0  0  0  0
   -0.8520   13.7610   -0.0720 O   0  0  0  0  0  0  0  0  0  0  0  0
    1.3750   13.8180   -0.1600 O   0  0  0  0  0  0  0  0  0  0  0  0
   -0.6430   14.7170   -0.0920 H   0  0  0  0  0  0  0  0  0  0  0  0
  1  5  1  0  0  0  0
  2  1  1  0  0  0  0
  3  2  2  0  0  0  0
  4  2  1  6  0  0  0
  4 10  5  0  0  0  0
  6  4  5  0  0  0  0
  6  7  5  0  0  0  0
  6 13  1  0  0  0  0
  7 12  1  6  0  0  0
  8  7  5  0  0  0  0
  8 11  1  6  0  0  0
  9  8  5  0  0  0  0
  9 15  1  6  0  0  0
 10  9  5  0  0  0  0
 10 14  1  0  0  0  0
 11 20  1  0  0  0  0
 11 24  1  6  0  0  0
 12 16  1  0  0  0  0
 17 11  1  0  0  0  0
 17 22  1  0  0  0  0
 17 23  1  0  0  0  0
 18 17  1  0  0  0  0
 19 18  1  0  0  0  0
 20 19  2  0  0  0  0
 21 18  1  6  0  0  0
 21 29  5  0  0  0  0
 25 21  5  0  0  0  0
 25 26  5  0  0  0  0
 25 32  1  0  0  0  0
 26 31  1  0  0  0  0
 27 26  5  0  0  0  0
 27 30  1  1  0  0  0
 28 27  5  0  0  0  0
 28 34  1  0  0  0  0
 29 28  5  0  0  0  0
 29 33  1  0  0  0  0
 30 36  2  0  0  0  0
 35 30  1  0  0  0  0
 37 35  1  0  0  0  0
M  END
