
 OpenBabel11042013083D

 28 28  0  0  1  0  0  0  0  0999 V2000
    1.0100    0.0600   -0.4360 O   0  0  0  0  0  0  0  0  0  0  0  0
   -0.0590    0.7240    0.0600 C   0  0  0  0  0  0  0  0  0  0  0  0
   -1.0990    0.1470    0.3410 O   0  0  0  0  0  0  0  0  0  0  0  0
    0.1190    2.2090    0.1550 C   0  0  2  0  0  0  0  0  0  0  0  0
    1.7650    0.6660   -0.6220 H   0  0  0  0  0  0  0  0  0  0  0  0
   -1.0160    2.9290    0.2420 C   0  0  0  0  0  0  0  0  0  0  0  0
   -1.0010    4.2770    0.2410 C   0  0  2  0  0  0  0  0  0  0  0  0
    0.1840    4.9440    0.1420 C   0  0  1  0  0  0  0  0  0  0  0  0
    1.3480    4.2170    0.1050 C   0  0  2  0  0  0  0  0  0  0  0  0
    1.3080    2.8550    0.1340 C   0  0  2  0  0  0  0  0  0  0  0  0
    0.2320    6.4070   -0.0350 C   0  0  0  0  0  0  0  0  0  0  0  0
   -3.0780    4.9310   -0.7000 C   0  0  0  0  0  0  0  0  0  0  0  0
   -1.9770    2.4190    0.3080 H   0  0  0  0  0  0  0  0  0  0  0  0
    2.5420    2.0840    0.1390 N   0  0  0  0  0  0  0  0  0  0  0  0
    3.0630    5.0750    0.0720 Br  0  0  0  0  0  0  0  0  0  0  0  0
   -2.8110    4.1870   -1.4570 H   0  0  0  0  0  0  0  0  0  0  0  0
   -3.0850    5.9270   -1.1540 H   0  0  0  0  0  0  0  0  0  0  0  0
   -4.0860    4.7180   -0.3320 H   0  0  0  0  0  0  0  0  0  0  0  0
   -2.1970    4.9560    0.4200 O   0  0  0  0  0  0  0  0  0  0  0  0
   -0.5610    7.3570    0.4840 C   0  0  0  0  0  0  0  0  0  0  0  0
   -0.3200    8.7490    0.0790 C   0  0  0  0  0  0  0  0  0  0  0  0
   -1.3850    7.1640    1.1560 H   0  0  0  0  0  0  0  0  0  0  0  0
    1.0070    6.7450   -0.7260 H   0  0  0  0  0  0  0  0  0  0  0  0
    2.6140    1.5270    1.0000 H   0  0  0  0  0  0  0  0  0  0  0  0
    3.3570    2.7090    0.1560 H   0  0  0  0  0  0  0  0  0  0  0  0
   -1.3340    9.5380    0.4620 O   0  0  0  0  0  0  0  0  0  0  0  0
    0.6270    9.1810   -0.5550 O   0  0  0  0  0  0  0  0  0  0  0  0
   -1.0810   10.4190    0.1150 H   0  0  0  0  0  0  0  0  0  0  0  0
  1  5  1  0  0  0  0
  2  1  1  0  0  0  0
  3  2  2  0  0  0  0
  4  2  1  6  0  0  0
  4 10  5  0  0  0  0
  6  4  5  0  0  0  0
  6  7  5  0  0  0  0
  6 13  1  0  0  0  0
  7 19  1  1  0  0  0
  8  7  5  0  0  0  0
  8 11  1  6  0  0  0
  9  8  5  0  0  0  0
  9 15  1  1  0  0  0
 10  9  5  0  0  0  0
 10 14  1  6  0  0  0
 11 23  1  0  0  0  0
 12 16  1  0  0  0  0
 12 17  1  0  0  0  0
 12 18  1  0  0  0  0
 12 19  1  0  0  0  0
 14 24  1  0  0  0  0
 14 25  1  0  0  0  0
 20 11  2  0  0  0  0
 20 22  1  0  0  0  0
 21 20  1  0  0  0  0
 21 27  2  0  0  0  0
 26 21  1  0  0  0  0
 28 26  1  0  0  0  0
M  END
