
 OpenBabel11032017293D

 43 45  0  0  1  0  0  0  0  0999 V2000
    1.1950   -1.0680    0.1230 O   0  0  0  0  0  0  0  0  0  0  0  0
    0.0640   -0.3330    0.1090 C   0  0  0  0  0  0  0  0  0  0  0  0
   -1.0280   -0.8490    0.2800 O   0  0  0  0  0  0  0  0  0  0  0  0
    0.2560    1.1280   -0.1200 C   0  0  1  0  0  0  0  0  0  0  0  0
    2.0140   -0.5990   -0.1030 H   0  0  0  0  0  0  0  0  0  0  0  0
   -0.8820    1.8390   -0.2890 C   0  0  0  0  0  0  0  0  0  0  0  0
   -0.8300    3.1670   -0.4610 C   0  0  0  0  0  0  0  0  0  0  0  0
    0.3610    3.7960   -0.4670 C   0  0  2  0  0  0  0  0  0  0  0  0
    1.4960    3.0950   -0.3200 C   0  0  0  0  0  0  0  0  0  0  0  0
    1.4500    1.7660   -0.1400 C   0  0  0  0  0  0  0  0  0  0  0  0
    0.4080    5.1450   -0.5590 N   0  0  0  0  0  0  0  0  0  0  0  0
   -1.7450    3.7400   -0.5680 H   0  0  0  0  0  0  0  0  0  0  0  0
   -1.8650    1.3590   -0.2650 H   0  0  0  0  0  0  0  0  0  0  0  0
    2.4030    1.2730    0.0110 H   0  0  0  0  0  0  0  0  0  0  0  0
    2.4460    3.6260   -0.3140 H   0  0  0  0  0  0  0  0  0  0  0  0
    0.2660    5.6870    0.5610 N   0  0  0  0  0  0  0  0  0  0  0  0
    0.1880    7.0340    0.4250 C   0  0  2  0  0  0  0  0  0  0  0  0
   -0.9970    7.6350    0.1780 C   0  0  1  0  0  0  0  0  0  0  0  0
   -1.0030    8.9640   -0.0370 C   0  0  0  0  0  0  0  0  0  0  0  0
    0.1240    9.7220    0.0110 C   0  0  2  0  0  0  0  0  0  0  0  0
    1.2910    9.0770    0.2540 C   0  0  0  0  0  0  0  0  0  0  0  0
    1.3200    7.7550    0.4640 C   0  0  0  0  0  0  0  0  0  0  0  0
    0.0670   11.1970   -0.1250 C   0  0  1  0  0  0  0  0  0  0  0  0
   -1.9730    9.3980   -0.2510 H   0  0  0  0  0  0  0  0  0  0  0  0
   -2.2910    6.8530    0.1370 C   0  0  0  0  0  0  0  0  0  0  0  0
    2.2690    7.2550    0.6490 H   0  0  0  0  0  0  0  0  0  0  0  0
    2.2480    9.5820    0.3010 H   0  0  0  0  0  0  0  0  0  0  0  0
   -1.1220   11.8480   -0.1150 C   0  0  0  0  0  0  0  0  0  0  0  0
   -1.2020   13.1870   -0.1150 C   0  0  0  0  0  0  0  0  0  0  0  0
   -0.0750   13.9250   -0.1140 C   0  0  2  0  0  0  0  0  0  0  0  0
    1.1230   13.3090   -0.1680 C   0  0  0  0  0  0  0  0  0  0  0  0
    1.1870   11.9650   -0.1840 C   0  0  0  0  0  0  0  0  0  0  0  0
   -0.1270   15.3980   -0.0280 C   0  0  0  0  0  0  0  0  0  0  0  0
   -2.1820   13.6490   -0.0740 H   0  0  0  0  0  0  0  0  0  0  0  0
   -2.0740   11.3340   -0.0710 H   0  0  0  0  0  0  0  0  0  0  0  0
    2.1810   11.5330   -0.2140 H   0  0  0  0  0  0  0  0  0  0  0  0
    2.0480   13.8830   -0.1750 H   0  0  0  0  0  0  0  0  0  0  0  0
   -3.1690    7.5070    0.1750 H   0  0  0  0  0  0  0  0  0  0  0  0
   -2.3740    6.1730    0.9930 H   0  0  0  0  0  0  0  0  0  0  0  0
   -2.3550    6.2680   -0.7870 H   0  0  0  0  0  0  0  0  0  0  0  0
   -1.3820   15.8780   -0.0010 O   0  0  0  0  0  0  0  0  0  0  0  0
    0.8310   16.1520    0.0380 O   0  0  0  0  0  0  0  0  0  0  0  0
   -1.2600   16.8470    0.0830 H   0  0  0  0  0  0  0  0  0  0  0  0
  1  5  1  0  0  0  0
  2  1  1  0  0  0  0
  3  2  2  0  0  0  0
  4  2  1  1  0  0  0
  4 10  5  0  0  0  0
  6  4  5  0  0  0  0
  6  7  5  0  0  0  0
  6 13  1  0  0  0  0
  7 12  1  0  0  0  0
  8  7  5  0  0  0  0
  8 11  1  1  0  0  0
  9  8  5  0  0  0  0
  9 15  1  0  0  0  0
 10  9  5  0  0  0  0
 10 14  1  0  0  0  0
 16 11  2  0  0  0  0
 17 16  1  6  0  0  0
 17 22  5  0  0  0  0
 18 17  5  0  0  0  0
 18 19  5  0  0  0  0
 18 25  1  6  0  0  0
 19 24  1  0  0  0  0
 20 19  5  1  0  0  0
 20 23  1  0  0  0  0
 21 20  5  0  0  0  0
 21 27  1  0  0  0  0
 22 21  5  0  0  0  0
 22 26  1  0  0  0  0
 23 28  5  1  0  0  0
 23 32  5  0  0  0  0
 25 38  1  0  0  0  0
 25 39  1  0  0  0  0
 25 40  1  0  0  0  0
 28 29  5  0  0  0  0
 28 35  1  0  0  0  0
 29 34  1  0  0  0  0
 30 29  5  0  0  0  0
 30 33  1  1  0  0  0
 31 30  5  0  0  0  0
 31 37  1  0  0  0  0
 32 31  5  0  0  0  0
 32 36  1  0  0  0  0
 33 42  2  0  0  0  0
 41 33  1  0  0  0  0
 43 41  1  0  0  0  0
M  END
