
 OpenBabel04212111313D

 49 52  0  0  1  0  0  0  0  0999 V2000
    1.2790    1.0870    0.1840 O   0  0  0  0  0  0  0  0  0  0  0  0
    0.8160    2.2340    0.7250 C   0  0  0  0  0  0  0  0  0  0  0  0
    0.2340    2.1930    1.7980 O   0  0  0  0  0  0  0  0  0  0  0  0
    1.0070    3.5230    0.0170 C   0  0  0  0  0  0  0  0  0  0  0  0
    1.7380    1.0750   -0.6670 H   0  0  0  0  0  0  0  0  0  0  0  0
    0.5490    4.6840    0.5000 C   0  0  0  0  0  0  0  0  0  0  0  0
    0.7430    5.8810   -0.2310 N   0  0  0  0  0  0  0  0  0  0  0  0
    0.0110    4.7150    1.4450 H   0  0  0  0  0  0  0  0  0  0  0  0
    1.5330    3.5170   -0.9340 H   0  0  0  0  0  0  0  0  0  0  0  0
    0.2510    6.9510    0.1740 N   0  0  0  0  0  0  0  0  0  0  0  0
    0.4020    8.1750   -0.5760 C   0  0  2  0  0  0  0  0  0  0  0  0
    0.9480    9.2890    0.2750 C   0  0  0  0  0  0  0  0  0  0  0  0
    0.5140   10.4570   -0.5830 C   0  0  1  0  0  0  0  0  0  0  0  0
   -0.8350   10.0830   -1.0380 N   0  0  0  0  0  0  0  0  0  0  0  0
   -0.9060    8.6690   -1.0000 N   0  0  0  0  0  0  0  0  0  0  0  0
    0.5130   11.8010    0.1700 C   0  0  1  0  0  0  0  0  0  0  0  0
   -1.1380    8.3110   -1.9550 H   0  0  0  0  0  0  0  0  0  0  0  0
   -1.5490   10.4150   -0.3480 H   0  0  0  0  0  0  0  0  0  0  0  0
    0.3710    9.3160    1.2290 H   0  0  0  0  0  0  0  0  0  0  0  0
    1.1700   10.5220   -1.4820 H   0  0  0  0  0  0  0  0  0  0  0  0
    2.0350    9.2320    0.4980 H   0  0  0  0  0  0  0  0  0  0  0  0
    1.0510    8.0300   -1.4740 H   0  0  0  0  0  0  0  0  0  0  0  0
    1.8920   12.3320    0.6220 C   0  0  0  0  0  0  0  0  0  0  0  0
    1.7290   13.7330    0.3420 N   0  0  0  0  0  0  0  0  0  0  0  0
    0.6330   13.9300   -0.4470 N   0  0  0  0  0  0  0  0  0  0  0  0
   -0.0240   12.8920   -0.6130 N   0  0  0  0  0  0  0  0  0  0  0  0
    2.5370   14.8120    0.8740 C   0  0  1  0  0  0  0  0  0  0  0  0
    2.0550   12.1160    1.7000 H   0  0  0  0  0  0  0  0  0  0  0  0
    2.7340   11.9620   -0.0030 H   0  0  0  0  0  0  0  0  0  0  0  0
   -0.1480   11.7240    1.0630 H   0  0  0  0  0  0  0  0  0  0  0  0
    3.0650   15.7600   -0.2320 C   0  0  0  0  0  0  0  0  0  0  0  0
    2.3270   16.9620    0.0550 N   0  0  0  0  0  0  0  0  0  0  0  0
    1.5700   16.8010    1.1770 N   0  0  0  0  0  0  0  0  0  0  0  0
    1.6770   15.6670    1.6650 N   0  0  0  0  0  0  0  0  0  0  0  0
    2.3830   18.1970   -0.7040 C   0  0  2  0  0  0  0  0  0  0  0  0
    4.1520   15.9620   -0.1140 H   0  0  0  0  0  0  0  0  0  0  0  0
    2.8420   15.3860   -1.2540 H   0  0  0  0  0  0  0  0  0  0  0  0
    3.3690   14.4160    1.4960 H   0  0  0  0  0  0  0  0  0  0  0  0
    3.7400   18.9230   -0.5310 C   0  0  0  0  0  0  0  0  0  0  0  0
    3.3110   20.1960   -0.0120 N   0  0  0  0  0  0  0  0  0  0  0  0
    1.9600   20.2180    0.1520 N   0  0  0  0  0  0  0  0  0  0  0  0
    1.4220   19.1590   -0.2000 N   0  0  0  0  0  0  0  0  0  0  0  0
    4.1110   21.2440    0.3020 C   0  0  0  0  0  0  0  0  0  0  0  0
    4.2620   19.0470   -1.5040 H   0  0  0  0  0  0  0  0  0  0  0  0
    4.3970   18.4300    0.2200 H   0  0  0  0  0  0  0  0  0  0  0  0
    2.1500   18.0030   -1.7730 H   0  0  0  0  0  0  0  0  0  0  0  0
    3.5680   22.3820    0.7910 O   0  0  0  0  0  0  0  0  0  0  0  0
    5.3210   21.1670    0.1460 O   0  0  0  0  0  0  0  0  0  0  0  0
    4.1150   23.1470    1.0220 H   0  0  0  0  0  0  0  0  0  0  0  0
  1  5  1  0  0  0  0
  2  1  1  0  0  0  0
  3  2  2  0  0  0  0
  4  2  1  0  0  0  0
  4  9  1  0  0  0  0
  6  4  2  0  0  0  0
  6  8  1  0  0  0  0
  7  6  1  0  0  0  0
 10  7  2  0  0  0  0
 11 10  1  0  0  0  0
 11 15  1  0  0  0  0
 11 22  1  6  0  0  0
 12 11  1  0  0  0  0
 12 19  1  0  0  0  0
 12 21  1  0  0  0  0
 13 12  1  0  0  0  0
 13 20  1  6  0  0  0
 14 13  1  0  0  0  0
 15 14  1  0  0  0  0
 16 13  1  0  0  0  0
 16 26  1  0  0  0  0
 16 30  1  1  0  0  0
 17 15  1  0  0  0  0
 18 14  1  0  0  0  0
 23 16  1  0  0  0  0
 23 28  1  0  0  0  0
 23 29  1  0  0  0  0
 24 23  1  0  0  0  0
 25 24  1  0  0  0  0
 26 25  2  0  0  0  0
 27 24  1  0  0  0  0
 27 34  1  0  0  0  0
 27 38  1  1  0  0  0
 31 27  1  0  0  0  0
 31 36  1  0  0  0  0
 31 37  1  0  0  0  0
 32 31  1  0  0  0  0
 33 32  1  0  0  0  0
 34 33  2  0  0  0  0
 35 32  1  0  0  0  0
 35 42  1  0  0  0  0
 35 46  1  6  0  0  0
 39 35  1  0  0  0  0
 39 44  1  0  0  0  0
 39 45  1  0  0  0  0
 40 39  1  0  0  0  0
 41 40  1  0  0  0  0
 42 41  2  0  0  0  0
 43 40  1  0  0  0  0
 43 48  2  0  0  0  0
 47 43  1  0  0  0  0
 49 47  1  0  0  0  0
M  END
