43

O          1.19500       -1.06800        0.12300
C          0.06400       -0.33300        0.10900
O         -1.02800       -0.84900        0.28000
C          0.25600        1.12800       -0.12000
H          2.01400       -0.59900       -0.10300
C         -0.88200        1.83900       -0.28900
C         -0.83000        3.16700       -0.46100
C          0.36100        3.79600       -0.46700
C          1.49600        3.09500       -0.32000
C          1.45000        1.76600       -0.14000
N          0.40800        5.14500       -0.55900
H         -1.74500        3.74000       -0.56800
H         -1.86500        1.35900       -0.26500
H          2.40300        1.27300        0.01100
H          2.44600        3.62600       -0.31400
N          0.26600        5.68700        0.56100
C          0.18800        7.03400        0.42500
C         -0.99700        7.63500        0.17800
C         -1.00300        8.96400       -0.03700
C          0.12400        9.72200        0.01100
C          1.29100        9.07700        0.25400
C          1.32000        7.75500        0.46400
C          0.06700       11.19700       -0.12500
H         -1.97300        9.39800       -0.25100
C         -2.29100        6.85300        0.13700
H          2.26900        7.25500        0.64900
H          2.24800        9.58200        0.30100
C         -1.12200       11.84800       -0.11500
C         -1.20200       13.18700       -0.11500
C         -0.07500       13.92500       -0.11400
C          1.12300       13.30900       -0.16800
C          1.18700       11.96500       -0.18400
C         -0.12700       15.39800       -0.02800
H         -2.18200       13.64900       -0.07400
H         -2.07400       11.33400       -0.07100
H          2.18100       11.53300       -0.21400
H          2.04800       13.88300       -0.17500
H         -3.16900        7.50700        0.17500
H         -2.37400        6.17300        0.99300
H         -2.35500        6.26800       -0.78700
O         -1.38200       15.87800       -0.00100
O          0.83100       16.15200        0.03800
H         -1.26000       16.84700        0.08300
