
 OpenBabel11042013083D

 39 41  0  0  1  0  0  0  0  0999 V2000
    1.2700   -0.0410    0.6310 O   0  0  0  0  0  0  0  0  0  0  0  0
    0.0770    0.5020    0.3120 C   0  0  0  0  0  0  0  0  0  0  0  0
   -0.8540   -0.2380    0.0180 O   0  0  0  0  0  0  0  0  0  0  0  0
    0.0090    2.0130    0.2570 C   0  0  2  0  0  0  0  0  0  0  0  0
    1.9750    0.5510    0.9260 H   0  0  0  0  0  0  0  0  0  0  0  0
   -1.1930    2.6150    0.0530 C   0  0  1  0  0  0  0  0  0  0  0  0
   -1.2590    3.9570   -0.1710 C   0  0  1  0  0  0  0  0  0  0  0  0
   -0.1400    4.7430   -0.1660 C   0  0  1  0  0  0  0  0  0  0  0  0
    1.0320    4.1340    0.1440 C   0  0  0  0  0  0  0  0  0  0  0  0
    1.1070    2.8010    0.3350 C   0  0  0  0  0  0  0  0  0  0  0  0
   -0.1620    6.2230   -0.5800 C   0  0  2  0  0  0  0  0  0  0  0  0
   -2.8500    4.6160   -0.5650 Cl  0  0  0  0  0  0  0  0  0  0  0  0
   -2.4110    1.8600    0.0420 N   0  0  0  0  0  0  0  0  0  0  0  0
    2.0980    2.4010    0.5090 H   0  0  0  0  0  0  0  0  0  0  0  0
    1.9580    4.7060    0.1840 H   0  0  0  0  0  0  0  0  0  0  0  0
   -3.2170    2.2910   -0.4010 H   0  0  0  0  0  0  0  0  0  0  0  0
   -2.3360    0.8540   -0.1270 H   0  0  0  0  0  0  0  0  0  0  0  0
    0.9180    7.2430   -0.2040 C   0  0  0  0  0  0  0  0  0  0  0  0
    0.1270    8.4780   -0.2950 N   0  0  0  0  0  0  0  0  0  0  0  0
   -1.1950    8.1580   -0.0640 N   0  0  0  0  0  0  0  0  0  0  0  0
   -1.3580    6.9250   -0.0840 N   0  0  0  0  0  0  0  0  0  0  0  0
    0.5140    9.7060    0.3700 C   0  0  1  0  0  0  0  0  0  0  0  0
    1.2770    7.1230    0.8230 H   0  0  0  0  0  0  0  0  0  0  0  0
    1.7550    7.2710   -0.9080 H   0  0  0  0  0  0  0  0  0  0  0  0
   -0.2300    6.2110   -1.6780 H   0  0  0  0  0  0  0  0  0  0  0  0
    1.7150   10.5130   -0.0830 C   0  0  0  0  0  0  0  0  0  0  0  0
    1.3980   11.8900    0.5300 C   0  0  2  0  0  0  0  0  0  0  0  0
   -0.0680   11.8790    0.7910 N   0  0  0  0  0  0  0  0  0  0  0  0
   -0.5320   10.7010    0.1250 N   0  0  0  0  0  0  0  0  0  0  0  0
    1.7630   13.0730   -0.3560 C   0  0  0  0  0  0  0  0  0  0  0  0
   -1.4130   10.3240    0.4810 H   0  0  0  0  0  0  0  0  0  0  0  0
   -0.4770   12.7320    0.3800 H   0  0  0  0  0  0  0  0  0  0  0  0
    2.6550   10.1060    0.3070 H   0  0  0  0  0  0  0  0  0  0  0  0
    1.9040   12.0200    1.4930 H   0  0  0  0  0  0  0  0  0  0  0  0
    1.7940   10.5620   -1.1770 H   0  0  0  0  0  0  0  0  0  0  0  0
    0.5870    9.4790    1.4410 H   0  0  0  0  0  0  0  0  0  0  0  0
    0.8240   14.0500   -0.3690 O   0  0  0  0  0  0  0  0  0  0  0  0
    2.8140   13.2240   -0.9530 O   0  0  0  0  0  0  0  0  0  0  0  0
    1.2090   14.7600   -0.9240 H   0  0  0  0  0  0  0  0  0  0  0  0
  1  5  1  0  0  0  0
  2  1  1  0  0  0  0
  3  2  2  0  0  0  0
  4  2  1  6  0  0  0
  4 10  5  0  0  0  0
  6  4  5  0  0  0  0
  6  7  5  0  0  0  0
  6 13  1  6  0  0  0
  7 12  1  6  0  0  0
  8  7  5  0  0  0  0
  8  9  5  6  0  0  0
  8 11  1  0  0  0  0
  9 15  1  0  0  0  0
 10  9  5  0  0  0  0
 10 14  1  0  0  0  0
 11 21  1  0  0  0  0
 11 25  1  6  0  0  0
 13 16  1  0  0  0  0
 13 17  1  0  0  0  0
 18 11  1  0  0  0  0
 18 23  1  0  0  0  0
 18 24  1  0  0  0  0
 19 18  1  0  0  0  0
 20 19  1  0  0  0  0
 21 20  2  0  0  0  0
 22 19  1  0  0  0  0
 22 29  1  0  0  0  0
 22 36  1  1  0  0  0
 26 22  1  0  0  0  0
 26 33  1  0  0  0  0
 26 35  1  0  0  0  0
 27 26  1  0  0  0  0
 27 34  1  1  0  0  0
 28 27  1  0  0  0  0
 29 28  1  0  0  0  0
 30 27  1  0  0  0  0
 30 38  2  0  0  0  0
 31 29  1  0  0  0  0
 32 28  1  0  0  0  0
 37 30  1  0  0  0  0
 39 37  1  0  0  0  0
M  END
