
 OpenBabel11042013083D

 36 37  0  0  1  0  0  0  0  0999 V2000
    1.0510   -0.2900   -0.0070 O   0  0  0  0  0  0  0  0  0  0  0  0
   -0.0800    0.4390    0.0100 C   0  0  0  0  0  0  0  0  0  0  0  0
   -1.1670   -0.1240   -0.0200 O   0  0  0  0  0  0  0  0  0  0  0  0
    0.0650    1.9390    0.0620 C   0  0  2  0  0  0  0  0  0  0  0  0
    1.8750    0.2310    0.0130 H   0  0  0  0  0  0  0  0  0  0  0  0
   -1.1230    2.5700    0.1580 C   0  0  0  0  0  0  0  0  0  0  0  0
   -1.1950    3.9050    0.2080 C   0  0  0  0  0  0  0  0  0  0  0  0
   -0.0790    4.6570    0.1440 C   0  0  1  0  0  0  0  0  0  0  0  0
    1.1460    4.0680    0.0170 C   0  0  1  0  0  0  0  0  0  0  0  0
    1.1940    2.6940    0.0090 C   0  0  2  0  0  0  0  0  0  0  0  0
   -0.2810    6.0680    0.1950 C   0  0  0  0  0  0  0  0  0  0  0  0
   -2.1740    4.3720    0.2910 H   0  0  0  0  0  0  0  0  0  0  0  0
   -2.0650    2.0120    0.1800 H   0  0  0  0  0  0  0  0  0  0  0  0
    2.7700    1.9170   -0.0840 Cl  0  0  0  0  0  0  0  0  0  0  0  0
    2.4780    4.8270   -0.1680 C   0  0  0  0  0  0  0  0  0  0  0  0
    2.5600    6.3410   -0.1470 C   0  0  0  0  0  0  0  0  0  0  0  0
    2.2710    6.7290    0.8350 H   0  0  0  0  0  0  0  0  0  0  0  0
    1.9490    6.7730   -0.9450 H   0  0  0  0  0  0  0  0  0  0  0  0
    3.5830    6.6800   -0.3360 H   0  0  0  0  0  0  0  0  0  0  0  0
    2.8710    4.5360   -1.1520 H   0  0  0  0  0  0  0  0  0  0  0  0
    3.1930    4.4910    0.5930 H   0  0  0  0  0  0  0  0  0  0  0  0
   -0.3770    7.2660    0.2000 C   0  0  0  0  0  0  0  0  0  0  0  0
   -0.3490    8.6900    0.1370 C   0  0  2  0  0  0  0  0  0  0  0  0
   -1.5000    9.3860    0.0740 C   0  0  0  0  0  0  0  0  0  0  0  0
   -1.4750   10.7290   -0.0020 C   0  0  0  0  0  0  0  0  0  0  0  0
   -0.2980   11.3910   -0.0220 C   0  0  2  0  0  0  0  0  0  0  0  0
    0.8590   10.6980    0.0270 C   0  0  0  0  0  0  0  0  0  0  0  0
    0.8290    9.3560    0.1140 C   0  0  0  0  0  0  0  0  0  0  0  0
   -0.2170   12.8690   -0.0870 C   0  0  0  0  0  0  0  0  0  0  0  0
   -2.4190   11.2690   -0.0480 H   0  0  0  0  0  0  0  0  0  0  0  0
   -2.4560    8.8680    0.0890 H   0  0  0  0  0  0  0  0  0  0  0  0
    1.7770    8.8310    0.1530 H   0  0  0  0  0  0  0  0  0  0  0  0
    1.8210   11.2080    0.0060 H   0  0  0  0  0  0  0  0  0  0  0  0
   -1.4270   13.4600   -0.0590 O   0  0  0  0  0  0  0  0  0  0  0  0
    0.8000   13.5410   -0.1360 O   0  0  0  0  0  0  0  0  0  0  0  0
   -1.2180   14.4170   -0.0730 H   0  0  0  0  0  0  0  0  0  0  0  0
  1  5  1  0  0  0  0
  2  1  1  0  0  0  0
  3  2  2  0  0  0  0
  4  2  1  6  0  0  0
  4 10  5  0  0  0  0
  6  4  5  0  0  0  0
  6  7  5  0  0  0  0
  6 13  1  0  0  0  0
  7 12  1  0  0  0  0
  8  7  5  0  0  0  0
  8 11  1  6  0  0  0
  9  8  5  0  0  0  0
  9 15  1  6  0  0  0
 10  9  5  0  0  0  0
 10 14  1  6  0  0  0
 15 20  1  0  0  0  0
 15 21  1  0  0  0  0
 16 17  1  0  0  0  0
 16 18  1  0  0  0  0
 16 19  1  0  0  0  0
 16 15  1  0  0  0  0
 22 11  3  0  0  0  0
 23 22  1  6  0  0  0
 23 28  5  0  0  0  0
 24 23  5  0  0  0  0
 24 25  5  0  0  0  0
 24 31  1  0  0  0  0
 25 30  1  0  0  0  0
 26 25  5  0  0  0  0
 26 29  1  1  0  0  0
 27 26  5  0  0  0  0
 27 33  1  0  0  0  0
 28 27  5  0  0  0  0
 28 32  1  0  0  0  0
 29 35  2  0  0  0  0
 34 29  1  0  0  0  0
 36 34  1  0  0  0  0
M  END
