19

O          0.91000        0.57600       -0.82200
C          0.18500        1.09300        0.19000
O         -0.37500        0.40700        1.03000
C          0.08900        2.57600        0.16900
H          1.43300        1.21400       -1.34200
C         -1.12300        3.15200       -0.04700
C         -1.22600        4.50900        0.03800
C         -0.12200        5.24800        0.29900
C          1.09800        4.67900        0.47500
C          1.18900        3.32200        0.42600
C         -0.27700        6.71900        0.43700
C         -2.49900        5.14500       -0.12000
Br        -2.65400        2.09900       -0.48300
Cl         2.72800        2.52600        0.70200
Br         2.64400        5.75400        0.77000
N         -3.52200        5.67800       -0.23800
O         -0.72700        7.28200       -0.69500
O         -0.06000        7.36700        1.44200
H         -0.88800        8.22300       -0.45800
