
 OpenBabel11042013083D

 41 43  0  0  1  0  0  0  0  0999 V2000
    1.4200   -0.5530   -0.0580 O   0  0  0  0  0  0  0  0  0  0  0  0
    0.2600    0.1130    0.1060 C   0  0  0  0  0  0  0  0  0  0  0  0
   -0.7850   -0.4760    0.3410 O   0  0  0  0  0  0  0  0  0  0  0  0
    0.3510    1.6060   -0.0120 C   0  0  1  0  0  0  0  0  0  0  0  0
    2.1740   -0.0330   -0.3710 H   0  0  0  0  0  0  0  0  0  0  0  0
   -0.8210    2.2710   -0.1260 C   0  0  0  0  0  0  0  0  0  0  0  0
   -0.8440    3.6190   -0.1500 C   0  0  0  0  0  0  0  0  0  0  0  0
    0.2970    4.3420   -0.0670 C   0  0  2  0  0  0  0  0  0  0  0  0
    1.4630    3.6640    0.0090 C   0  0  0  0  0  0  0  0  0  0  0  0
    1.4960    2.3200    0.0440 C   0  0  0  0  0  0  0  0  0  0  0  0
    0.3370    5.7130    0.0650 N   0  0  0  0  0  0  0  0  0  0  0  0
   -1.8080    4.1210   -0.2040 H   0  0  0  0  0  0  0  0  0  0  0  0
   -1.7670    1.7290   -0.1680 H   0  0  0  0  0  0  0  0  0  0  0  0
    2.4710    1.8530    0.1570 H   0  0  0  0  0  0  0  0  0  0  0  0
    2.3940    4.2220    0.0810 H   0  0  0  0  0  0  0  0  0  0  0  0
   -0.6140    6.3780   -0.3880 N   0  0  0  0  0  0  0  0  0  0  0  0
   -0.7470    7.6590    0.3190 C   0  0  1  0  0  0  0  0  0  0  0  0
    0.4060    8.6120    0.0990 C   0  0  0  0  0  0  0  0  0  0  0  0
   -0.3060    9.8770    0.1290 N   0  0  0  0  0  0  0  0  0  0  0  0
   -1.6230    9.6530   -0.2370 N   0  0  0  0  0  0  0  0  0  0  0  0
   -1.8940    8.4290   -0.1880 N   0  0  0  0  0  0  0  0  0  0  0  0
    0.2830   11.0820   -0.4070 C   0  0  2  0  0  0  0  0  0  0  0  0
    0.8750    8.4830   -0.8830 H   0  0  0  0  0  0  0  0  0  0  0  0
    1.1600    8.5680    0.8890 H   0  0  0  0  0  0  0  0  0  0  0  0
   -0.9180    7.4780    1.3880 H   0  0  0  0  0  0  0  0  0  0  0  0
    1.5260   11.6800    0.2350 C   0  0  0  0  0  0  0  0  0  0  0  0
    1.4620   13.1080   -0.3220 C   0  0  1  0  0  0  0  0  0  0  0  0
    0.0330   13.3600   -0.6210 N   0  0  0  0  0  0  0  0  0  0  0  0
   -0.6540   12.1770   -0.1810 N   0  0  0  0  0  0  0  0  0  0  0  0
    2.1170   14.1150    0.5370 N   0  0  0  0  0  0  0  0  0  0  0  0
   -1.5190   11.9760   -0.6840 H   0  0  0  0  0  0  0  0  0  0  0  0
   -0.2490   14.1560   -0.0380 H   0  0  0  0  0  0  0  0  0  0  0  0
    2.4410   11.1630   -0.0730 H   0  0  0  0  0  0  0  0  0  0  0  0
    1.9920   13.1290   -1.2840 H   0  0  0  0  0  0  0  0  0  0  0  0
    1.4800   11.6640    1.3320 H   0  0  0  0  0  0  0  0  0  0  0  0
    0.4440   10.9210   -1.4810 H   0  0  0  0  0  0  0  0  0  0  0  0
    1.3130   14.9660    0.9880 N   0  0  0  0  0  0  0  0  0  0  0  0
    1.6070   16.2390    0.5700 C   0  0  0  0  0  0  0  0  0  0  0  0
    0.4760   16.9660    0.4400 O   0  0  0  0  0  0  0  0  0  0  0  0
    2.6830   16.7280    0.2530 O   0  0  0  0  0  0  0  0  0  0  0  0
    0.7930   17.8100    0.0600 H   0  0  0  0  0  0  0  0  0  0  0  0
  1  5  1  0  0  0  0
  2  1  1  0  0  0  0
  3  2  2  0  0  0  0
  4  2  1  1  0  0  0
  4 10  5  0  0  0  0
  6  4  5  0  0  0  0
  6  7  5  0  0  0  0
  6 13  1  0  0  0  0
  7 12  1  0  0  0  0
  8  7  5  0  0  0  0
  8 11  1  1  0  0  0
  9  8  5  0  0  0  0
  9 15  1  0  0  0  0
 10  9  5  0  0  0  0
 10 14  1  0  0  0  0
 16 11  2  0  0  0  0
 17 16  1  0  0  0  0
 17 21  1  0  0  0  0
 17 25  1  1  0  0  0
 18 17  1  0  0  0  0
 18 23  1  0  0  0  0
 18 24  1  0  0  0  0
 19 18  1  0  0  0  0
 20 19  1  0  0  0  0
 21 20  2  0  0  0  0
 22 19  1  0  0  0  0
 22 29  1  0  0  0  0
 22 36  1  6  0  0  0
 26 22  1  0  0  0  0
 26 33  1  0  0  0  0
 26 35  1  0  0  0  0
 27 26  1  0  0  0  0
 27 34  1  6  0  0  0
 28 27  1  0  0  0  0
 29 28  1  0  0  0  0
 30 27  1  0  0  0  0
 31 29  1  0  0  0  0
 32 28  1  0  0  0  0
 37 30  2  0  0  0  0
 38 37  1  0  0  0  0
 38 40  2  0  0  0  0
 39 38  1  0  0  0  0
 41 39  1  0  0  0  0
M  END
