
 OpenBabel11042013083D

 37 38  0  0  1  0  0  0  0  0999 V2000
    1.2910   -0.0720   -0.0330 O   0  0  0  0  0  0  0  0  0  0  0  0
    0.0700    0.5030   -0.0860 C   0  0  0  0  0  0  0  0  0  0  0  0
   -0.9390   -0.1770   -0.1750 O   0  0  0  0  0  0  0  0  0  0  0  0
    0.0450    2.0000   -0.0140 C   0  0  2  0  0  0  0  0  0  0  0  0
    2.0510    0.5130    0.0960 H   0  0  0  0  0  0  0  0  0  0  0  0
   -1.1780    2.5820    0.0400 C   0  0  0  0  0  0  0  0  0  0  0  0
   -1.3040    3.9230    0.1150 C   0  0  0  0  0  0  0  0  0  0  0  0
   -0.2040    4.6990    0.1370 C   0  0  1  0  0  0  0  0  0  0  0  0
    1.0120    4.1250    0.0690 C   0  0  0  0  0  0  0  0  0  0  0  0
    1.1420    2.7890   -0.0090 C   0  0  0  0  0  0  0  0  0  0  0  0
   -0.2550    6.1160    0.2150 C   0  0  0  0  0  0  0  0  0  0  0  0
   -2.2990    4.3670    0.1480 H   0  0  0  0  0  0  0  0  0  0  0  0
   -2.0820    1.9730    0.0260 H   0  0  0  0  0  0  0  0  0  0  0  0
    2.1540    2.4090   -0.0690 H   0  0  0  0  0  0  0  0  0  0  0  0
    1.9060    4.7480    0.0730 H   0  0  0  0  0  0  0  0  0  0  0  0
   -0.0210    7.2930    0.2220 C   0  0  0  0  0  0  0  0  0  0  0  0
    0.5060    8.5990    0.1010 C   0  0  0  0  0  0  0  0  0  0  0  0
   -0.2310    9.7010    0.2000 C   0  0  0  0  0  0  0  0  0  0  0  0
    0.2720   10.9150   -0.1590 N   0  0  0  0  0  0  0  0  0  0  0  0
   -1.2920    9.6640    0.4230 H   0  0  0  0  0  0  0  0  0  0  0  0
    1.5620    8.6850   -0.1500 H   0  0  0  0  0  0  0  0  0  0  0  0
    0.2340   11.8210    0.6990 N   0  0  0  0  0  0  0  0  0  0  0  0
    0.3130   13.1170    0.0090 C   0  0  2  0  0  0  0  0  0  0  0  0
    0.9730   14.2430    0.6210 O   0  0  0  0  0  0  0  0  0  0  0  0
   -1.0120   15.1020   -0.2230 C   0  0  0  0  0  0  0  0  0  0  0  0
   -1.1180   13.5960   -0.2120 C   0  0  0  0  0  0  0  0  0  0  0  0
    0.8390   16.7670    0.3390 C   0  0  0  0  0  0  0  0  0  0  0  0
   -1.7810   13.2760    0.6020 H   0  0  0  0  0  0  0  0  0  0  0  0
   -1.5360   15.5120    0.6490 H   0  0  0  0  0  0  0  0  0  0  0  0
   -1.4590   15.5430   -1.1190 H   0  0  0  0  0  0  0  0  0  0  0  0
   -1.5290   13.1860   -1.1410 H   0  0  0  0  0  0  0  0  0  0  0  0
    0.9250   15.2850   -1.1400 H   0  0  0  0  0  0  0  0  0  0  0  0
    0.4840   15.3590   -0.1360 C   0  0  1  0  0  0  0  0  0  0  0  0
    0.8180   12.9850   -0.9600 H   0  0  0  0  0  0  0  0  0  0  0  0
   -0.0860   17.6880   -0.0130 O   0  0  0  0  0  0  0  0  0  0  0  0
    1.8750   17.1230    0.8760 O   0  0  0  0  0  0  0  0  0  0  0  0
    0.2960   18.5380    0.2910 H   0  0  0  0  0  0  0  0  0  0  0  0
  1  5  1  0  0  0  0
  2  1  1  0  0  0  0
  3  2  2  0  0  0  0
  4  2  1  6  0  0  0
  4 10  5  0  0  0  0
  6  4  5  0  0  0  0
  6  7  5  0  0  0  0
  6 13  1  0  0  0  0
  7 12  1  0  0  0  0
  8  7  5  0  0  0  0
  8 11  1  6  0  0  0
  9  8  5  0  0  0  0
  9 15  1  0  0  0  0
 10  9  5  0  0  0  0
 10 14  1  0  0  0  0
 16 11  3  0  0  0  0
 17 16  1  0  0  0  0
 17 21  1  0  0  0  0
 18 17  2  0  0  0  0
 18 20  1  0  0  0  0
 19 18  1  0  0  0  0
 22 19  2  0  0  0  0
 23 22  1  0  0  0  0
 23 26  1  0  0  0  0
 23 34  1  6  0  0  0
 24 23  1  0  0  0  0
 25 33  1  0  0  0  0
 25 30  1  0  0  0  0
 26 25  1  0  0  0  0
 26 31  1  0  0  0  0
 27 33  1  0  0  0  0
 27 36  2  0  0  0  0
 28 26  1  0  0  0  0
 29 25  1  0  0  0  0
 33 24  1  0  0  0  0
 33 32  1  6  0  0  0
 35 27  1  0  0  0  0
 37 35  1  0  0  0  0
M  END
