
 OpenBabel11042013083D

 35 36  0  0  1  0  0  0  0  0999 V2000
    1.3840   -0.1560    0.2790 O   0  0  0  0  0  0  0  0  0  0  0  0
    0.2280    0.4140   -0.1340 C   0  0  0  0  0  0  0  0  0  0  0  0
   -0.7250   -0.2810   -0.4600 O   0  0  0  0  0  0  0  0  0  0  0  0
    0.2090    1.9240   -0.0800 C   0  0  2  0  0  0  0  0  0  0  0  0
    2.1070    0.5020    0.3670 H   0  0  0  0  0  0  0  0  0  0  0  0
   -0.9740    2.5880    0.0530 C   0  0  2  0  0  0  0  0  0  0  0  0
   -0.9230    3.9390    0.1340 C   0  0  0  0  0  0  0  0  0  0  0  0
    0.2220    4.6530    0.1030 C   0  0  2  0  0  0  0  0  0  0  0  0
    1.3720    3.9690   -0.0730 C   0  0  0  0  0  0  0  0  0  0  0  0
    1.3710    2.6240   -0.1740 C   0  0  1  0  0  0  0  0  0  0  0  0
    0.1190    6.1550    0.2930 C   0  0  1  0  0  0  0  0  0  0  0  0
   -1.8490    4.4980    0.2480 H   0  0  0  0  0  0  0  0  0  0  0  0
   -2.3360    1.8930    0.1390 C   0  0  0  0  0  0  0  0  0  0  0  0
    2.5820    1.9690   -0.3630 O   0  0  0  0  0  0  0  0  0  0  0  0
    2.3190    4.5010   -0.1060 H   0  0  0  0  0  0  0  0  0  0  0  0
    3.2000    2.5000   -0.9000 H   0  0  0  0  0  0  0  0  0  0  0  0
    1.2250    7.0820   -0.1590 C   0  0  0  0  0  0  0  0  0  0  0  0
    0.4290    8.2340   -0.4980 N   0  0  0  0  0  0  0  0  0  0  0  0
   -0.8770    7.9100   -0.7230 N   0  0  0  0  0  0  0  0  0  0  0  0
   -1.0550    6.7020   -0.4420 N   0  0  0  0  0  0  0  0  0  0  0  0
    0.8130    9.4930   -0.1590 N   0  0  0  0  0  0  0  0  0  0  0  0
    1.9480    7.3040    0.6300 H   0  0  0  0  0  0  0  0  0  0  0  0
    1.7350    6.7460   -1.0670 H   0  0  0  0  0  0  0  0  0  0  0  0
   -0.0630    6.3310    1.3630 H   0  0  0  0  0  0  0  0  0  0  0  0
   -0.1690   10.2650   -0.1550 N   0  0  0  0  0  0  0  0  0  0  0  0
    0.1560   11.5630    0.1010 C   0  0  0  0  0  0  0  0  0  0  0  0
   -3.5470    2.7510    0.5250 C   0  0  0  0  0  0  0  0  0  0  0  0
   -3.3810    3.2670    1.4770 H   0  0  0  0  0  0  0  0  0  0  0  0
   -3.7710    3.4960   -0.2460 H   0  0  0  0  0  0  0  0  0  0  0  0
   -4.4360    2.1230    0.6380 H   0  0  0  0  0  0  0  0  0  0  0  0
   -2.2790    1.0940    0.8870 H   0  0  0  0  0  0  0  0  0  0  0  0
   -2.5590    1.4400   -0.8360 H   0  0  0  0  0  0  0  0  0  0  0  0
   -0.9530   12.3340    0.1400 O   0  0  0  0  0  0  0  0  0  0  0  0
    1.2540   12.0750    0.2700 O   0  0  0  0  0  0  0  0  0  0  0  0
   -0.5990   13.2300    0.2800 H   0  0  0  0  0  0  0  0  0  0  0  0
  1  5  1  0  0  0  0
  2  1  1  0  0  0  0
  3  2  2  0  0  0  0
  4  2  1  6  0  0  0
  4 10  5  0  0  0  0
  6  4  5  0  0  0  0
  6  7  5  0  0  0  0
  6 13  1  1  0  0  0
  7 12  1  0  0  0  0
  8  7  5  1  0  0  0
  8 11  1  0  0  0  0
  9  8  5  0  0  0  0
  9 15  1  0  0  0  0
 10  9  5  0  0  0  0
 10 14  1  1  0  0  0
 11 20  1  0  0  0  0
 11 24  1  1  0  0  0
 13 31  1  0  0  0  0
 13 32  1  0  0  0  0
 14 16  1  0  0  0  0
 17 11  1  0  0  0  0
 17 22  1  0  0  0  0
 17 23  1  0  0  0  0
 18 17  1  0  0  0  0
 19 18  1  0  0  0  0
 20 19  2  0  0  0  0
 21 18  1  0  0  0  0
 25 21  2  0  0  0  0
 26 25  1  0  0  0  0
 26 34  2  0  0  0  0
 27 28  1  0  0  0  0
 27 29  1  0  0  0  0
 27 30  1  0  0  0  0
 27 13  1  0  0  0  0
 33 26  1  0  0  0  0
 35 33  1  0  0  0  0
M  END
