35

O          1.38400       -0.15600        0.27900
C          0.22800        0.41400       -0.13400
O         -0.72500       -0.28100       -0.46000
C          0.20900        1.92400       -0.08000
H          2.10700        0.50200        0.36700
C         -0.97400        2.58800        0.05300
C         -0.92300        3.93900        0.13400
C          0.22200        4.65300        0.10300
C          1.37200        3.96900       -0.07300
C          1.37100        2.62400       -0.17400
C          0.11900        6.15500        0.29300
H         -1.84900        4.49800        0.24800
C         -2.33600        1.89300        0.13900
O          2.58200        1.96900       -0.36300
H          2.31900        4.50100       -0.10600
H          3.20000        2.50000       -0.90000
C          1.22500        7.08200       -0.15900
N          0.42900        8.23400       -0.49800
N         -0.87700        7.91000       -0.72300
N         -1.05500        6.70200       -0.44200
N          0.81300        9.49300       -0.15900
H          1.94800        7.30400        0.63000
H          1.73500        6.74600       -1.06700
H         -0.06300        6.33100        1.36300
N         -0.16900       10.26500       -0.15500
C          0.15600       11.56300        0.10100
C         -3.54700        2.75100        0.52500
H         -3.38100        3.26700        1.47700
H         -3.77100        3.49600       -0.24600
H         -4.43600        2.12300        0.63800
H         -2.27900        1.09400        0.88700
H         -2.55900        1.44000       -0.83600
O         -0.95300       12.33400        0.14000
O          1.25400       12.07500        0.27000
H         -0.59900       13.23000        0.28000
