41

O          1.19300       -0.10900       -0.09500
C          0.01900        0.55700       -0.11200
O         -1.03900       -0.04700       -0.22900
C          0.10700        2.05200        0.02300
H          1.99400        0.41500        0.05300
C         -1.07700        2.70700        0.10000
C         -1.11900        4.05400        0.20900
C          0.02000        4.77900        0.24800
C          1.19800        4.12200        0.17300
C          1.24700        2.77500        0.06000
C         -0.03900        6.20100        0.26300
H         -2.08500        4.55100        0.25300
H         -2.01700        2.16000        0.06100
H          2.23100        2.33000       -0.01400
H          2.13000        4.68400        0.18600
C         -0.08800        7.39700        0.10600
C         -0.22900        8.75700       -0.40200
C          0.91100        9.70800       -0.14300
N          0.15400       10.94700       -0.17400
N         -1.13400       10.67000        0.30400
N         -1.34400        9.42800        0.28100
C          0.69300       12.21600        0.26700
H          1.35100        9.58600        0.85800
H          1.67400        9.67800       -0.91300
H         -0.47400        8.70900       -1.46600
C          2.02400       12.82700       -0.22000
C          1.79400       14.32600        0.16100
N          0.33000       14.44300        0.35000
N         -0.21600       13.24800       -0.20900
N          2.36900       15.49900       -0.59300
H         -1.15500       13.02900        0.12800
H          0.04100       15.26200       -0.19500
H          2.83200       12.40100        0.39200
H          2.28100       14.42000        1.13600
H          2.24800       12.60300       -1.27000
H          0.69500       12.17400        1.36600
N          1.51400       16.43900       -0.63300
C          1.87600       17.71100       -0.25000
O          0.77000       18.50300       -0.18100
O          2.96200       18.17300        0.07500
H          1.07600       19.37300        0.14600
