29

O          1.49800        0.53200       -0.00000
C          0.23600        1.02000        0.00100
O         -0.66900        0.20000        0.00000
C          0.06800        2.55000        0.00500
H          2.25700        1.12600        0.00000
C         -1.14500        3.21400        0.00300
C         -1.13500        4.58700        0.00500
C          0.00600        5.31800        0.00400
C          1.16700        4.63600        0.00400
C          1.19500        3.29800        0.00400
C          0.13800        6.77400        0.00100
H         -2.08500        5.12200        0.00100
C         -2.50200        2.56100       -0.02800
H          2.19400        2.89300        0.00200
H          2.12000        5.16200        0.00100
C         -0.79200        7.74600        0.00000
C         -0.36000        9.11100       -0.00300
H         -1.84700        7.54200        0.00100
H          1.17400        7.12500        0.00000
C          0.04500       10.25100       -0.00300
N          0.47800       11.51500       -0.00200
H         -3.33200        3.25800        0.00600
H         -3.27000        1.76300        0.01300
H         -2.10600        1.56700        0.00100
N         -0.51800       12.26400       -0.00000
C         -0.19400       13.59300       -0.00000
O         -1.31400       14.34700        0.00000
O          0.90200       14.13800        0.00000
H         -0.96700       15.26000        0.00000
