
 OpenBabel11042013083D

 26 26  0  0  1  0  0  0  0  0999 V2000
    1.2050    0.2750   -0.0000 O   0  0  0  0  0  0  0  0  0  0  0  0
    0.0290    0.9410    0.0000 C   0  0  0  0  0  0  0  0  0  0  0  0
   -1.0070    0.2970   -0.0000 O   0  0  0  0  0  0  0  0  0  0  0  0
    0.0880    2.4360   -0.0000 C   0  0  1  0  0  0  0  0  0  0  0  0
    2.0410    0.7600    0.0000 H   0  0  0  0  0  0  0  0  0  0  0  0
   -1.0670    3.1660    0.0000 C   0  0  1  0  0  0  0  0  0  0  0  0
   -0.9950    4.5100    0.0000 C   0  0  0  0  0  0  0  0  0  0  0  0
    0.1720    5.1380    0.0000 C   0  0  1  0  0  0  0  0  0  0  0  0
    1.3310    4.4580    0.0000 C   0  0  0  0  0  0  0  0  0  0  0  0
    1.2820    3.1040    0.0000 C   0  0  0  0  0  0  0  0  0  0  0  0
    0.1250    6.5470   -0.0000 C   0  0  0  0  0  0  0  0  0  0  0  0
   -1.8940    5.1200   -0.0000 H   0  0  0  0  0  0  0  0  0  0  0  0
   -2.8500    2.5370   -0.0000 Br  0  0  0  0  0  0  0  0  0  0  0  0
    2.2450    2.6090    0.0000 H   0  0  0  0  0  0  0  0  0  0  0  0
    2.2930    4.9660   -0.0000 H   0  0  0  0  0  0  0  0  0  0  0  0
    0.0960    7.7400   -0.0000 C   0  0  0  0  0  0  0  0  0  0  0  0
    0.4910    9.0810   -0.0000 C   0  0  0  0  0  0  0  0  0  0  0  0
   -0.3060   10.1430    0.0000 C   0  0  0  0  0  0  0  0  0  0  0  0
    0.2420   11.4020    0.0000 N   0  0  0  0  0  0  0  0  0  0  0  0
   -1.3980   10.0550   -0.0000 H   0  0  0  0  0  0  0  0  0  0  0  0
    1.5590    9.2090    0.0000 H   0  0  0  0  0  0  0  0  0  0  0  0
   -0.6300   12.2770   -0.0000 N   0  0  0  0  0  0  0  0  0  0  0  0
   -0.1840   13.5560    0.0000 C   0  0  0  0  0  0  0  0  0  0  0  0
   -1.2470   14.3780   -0.0000 O   0  0  0  0  0  0  0  0  0  0  0  0
    0.9630   14.0240   -0.0000 O   0  0  0  0  0  0  0  0  0  0  0  0
   -0.9050   15.2890    0.0000 H   0  0  0  0  0  0  0  0  0  0  0  0
  1  5  1  0  0  0  0
  2  1  1  0  0  0  0
  3  2  2  0  0  0  0
  4  2  1  1  0  0  0
  4 10  5  0  0  0  0
  6  4  5  0  0  0  0
  6  7  5  0  0  0  0
  6 13  1  6  0  0  0
  7 12  1  0  0  0  0
  8  7  5  0  0  0  0
  8 11  1  6  0  0  0
  9  8  5  0  0  0  0
  9 15  1  0  0  0  0
 10  9  5  0  0  0  0
 10 14  1  0  0  0  0
 16 11  3  0  0  0  0
 17 16  1  0  0  0  0
 17 21  1  0  0  0  0
 18 17  2  0  0  0  0
 18 20  1  0  0  0  0
 19 18  1  0  0  0  0
 22 19  2  0  0  0  0
 23 22  1  0  0  0  0
 23 25  2  0  0  0  0
 24 23  1  0  0  0  0
 26 24  1  0  0  0  0
M  END
