
 OpenBabel11042013083D

 40 41  0  0  1  0  0  0  0  0999 V2000
    1.4110    0.8920   -2.1630 O   0  0  0  0  0  0  0  0  0  0  0  0
    0.2690    1.6020   -2.3660 C   0  0  0  0  0  0  0  0  0  0  0  0
   -0.5600    1.3120   -3.2100 O   0  0  0  0  0  0  0  0  0  0  0  0
    0.1370    2.6840   -1.3700 C   0  0  1  0  0  0  0  0  0  0  0  0
    1.9170    1.1930   -1.3780 H   0  0  0  0  0  0  0  0  0  0  0  0
   -0.9590    2.7130   -0.5860 C   0  0  0  0  0  0  0  0  0  0  0  0
   -1.1090    3.7170    0.2910 C   0  0  1  0  0  0  0  0  0  0  0  0
   -0.1130    4.6250    0.5000 C   0  0  1  0  0  0  0  0  0  0  0  0
    1.1070    4.3880   -0.0940 C   0  0  2  0  0  0  0  0  0  0  0  0
    1.1210    3.5870   -1.2000 C   0  0  2  0  0  0  0  0  0  0  0  0
   -0.4160    5.9770    1.1780 C   0  0  1  0  0  0  0  0  0  0  0  0
   -2.3530    3.7840    0.9620 N   0  0  0  0  0  0  0  0  0  0  0  0
   -1.7310    1.9600   -0.7360 H   0  0  0  0  0  0  0  0  0  0  0  0
    2.1040    3.8690   -2.3220 C   0  0  0  0  0  0  0  0  0  0  0  0
    2.5070    4.7570    0.4270 C   0  0  0  0  0  0  0  0  0  0  0  0
    2.7940    5.4200    1.7720 C   0  0  0  0  0  0  0  0  0  0  0  0
    2.8210    6.5060    1.6710 H   0  0  0  0  0  0  0  0  0  0  0  0
    2.0900    5.1280    2.5530 H   0  0  0  0  0  0  0  0  0  0  0  0
    3.7990    5.1290    2.1100 H   0  0  0  0  0  0  0  0  0  0  0  0
    2.9660    3.7570    0.5730 H   0  0  0  0  0  0  0  0  0  0  0  0
    3.1310    5.2390   -0.3310 H   0  0  0  0  0  0  0  0  0  0  0  0
    2.4520    4.9020   -2.2840 H   0  0  0  0  0  0  0  0  0  0  0  0
    2.9560    3.1940   -2.3360 H   0  0  0  0  0  0  0  0  0  0  0  0
    1.5740    3.8240   -3.2820 H   0  0  0  0  0  0  0  0  0  0  0  0
    0.6300    6.9440    0.9360 O   0  0  0  0  0  0  0  0  0  0  0  0
   -1.3350    8.0820    0.3990 C   0  0  0  0  0  0  0  0  0  0  0  0
   -1.6750    6.6290    0.5650 C   0  0  0  0  0  0  0  0  0  0  0  0
    0.7990    9.3730    0.4960 C   0  0  0  0  0  0  0  0  0  0  0  0
   -1.8960    6.2210   -0.4310 H   0  0  0  0  0  0  0  0  0  0  0  0
   -1.8830    8.5510   -0.4250 H   0  0  0  0  0  0  0  0  0  0  0  0
   -1.5700    8.6310    1.3170 H   0  0  0  0  0  0  0  0  0  0  0  0
   -2.5670    6.4910    1.1820 H   0  0  0  0  0  0  0  0  0  0  0  0
    0.3830    7.8110   -0.8990 H   0  0  0  0  0  0  0  0  0  0  0  0
    0.1510    8.0350    0.1490 C   0  0  1  0  0  0  0  0  0  0  0  0
   -0.5050    5.8580    2.2630 H   0  0  0  0  0  0  0  0  0  0  0  0
   -2.4190    4.2810    1.8440 H   0  0  0  0  0  0  0  0  0  0  0  0
   -2.9900    2.9980    0.9020 H   0  0  0  0  0  0  0  0  0  0  0  0
    0.2100   10.4120   -0.1400 O   0  0  0  0  0  0  0  0  0  0  0  0
    1.7490    9.5740    1.2340 O   0  0  0  0  0  0  0  0  0  0  0  0
    0.7050   11.1950    0.1820 H   0  0  0  0  0  0  0  0  0  0  0  0
  1  5  1  0  0  0  0
  2  1  1  0  0  0  0
  3  2  2  0  0  0  0
  4  2  1  1  0  0  0
  4 10  5  0  0  0  0
  6  4  5  0  0  0  0
  6  7  5  0  0  0  0
  6 13  1  0  0  0  0
  7 12  1  6  0  0  0
  8  7  5  0  0  0  0
  8 11  1  6  0  0  0
  9  8  5  0  0  0  0
  9 15  1  1  0  0  0
 10  9  5  0  0  0  0
 10 14  1  6  0  0  0
 11 27  1  0  0  0  0
 11 35  1  1  0  0  0
 12 36  1  0  0  0  0
 12 37  1  0  0  0  0
 14 22  1  0  0  0  0
 14 23  1  0  0  0  0
 14 24  1  0  0  0  0
 15 20  1  0  0  0  0
 15 21  1  0  0  0  0
 16 17  1  0  0  0  0
 16 18  1  0  0  0  0
 16 19  1  0  0  0  0
 16 15  1  0  0  0  0
 25 11  1  0  0  0  0
 26 34  1  0  0  0  0
 26 31  1  0  0  0  0
 27 26  1  0  0  0  0
 27 32  1  0  0  0  0
 28 34  1  0  0  0  0
 28 39  2  0  0  0  0
 29 27  1  0  0  0  0
 30 26  1  0  0  0  0
 34 25  1  0  0  0  0
 34 33  1  6  0  0  0
 38 28  1  0  0  0  0
 40 38  1  0  0  0  0
M  END
