26

O          1.02600       -0.27700        0.42700
C          0.00500        0.46000       -0.05100
O         -0.98100       -0.09200       -0.52200
C          0.15600        1.94700        0.04100
H          1.83600        0.21600        0.64500
C         -1.01900        2.59500        0.17100
C         -1.07900        3.93200        0.13600
C          0.02600        4.70100       -0.02400
C          1.22400        4.05000       -0.07900
C          1.29900        2.68100       -0.05700
C         -0.24600        6.20000       -0.22000
H         -2.07100        4.37800        0.19900
F         -2.18800        1.93400        0.31200
Br         2.99600        1.81500       -0.23400
Cl         2.69900        4.97800       -0.25400
C          0.79100        7.29800       -0.15700
N         -0.07300        8.40400        0.15200
N         -1.21500        8.00200        0.76400
N         -1.27400        6.73800        0.72200
C          0.23000        9.71400       -0.10700
H          1.48900        7.21200        0.68300
H          1.32900        7.46000       -1.09600
H         -0.70300        6.26500       -1.22400
O         -0.74800       10.58200        0.23000
O          1.25500       10.13100       -0.62300
H         -0.38900       11.45000       -0.04100
