
 OpenBabel11042013083D

 37 38  0  0  1  0  0  0  0  0999 V2000
    0.7750    0.5110    0.4040 O   0  0  0  0  0  0  0  0  0  0  0  0
   -0.0140    1.3070   -0.3470 C   0  0  0  0  0  0  0  0  0  0  0  0
   -0.8750    0.8380   -1.0830 O   0  0  0  0  0  0  0  0  0  0  0  0
    0.1790    2.7820   -0.1420 C   0  0  2  0  0  0  0  0  0  0  0  0
    1.2860    0.9950    1.0760 H   0  0  0  0  0  0  0  0  0  0  0  0
   -0.9390    3.4810    0.1570 C   0  0  2  0  0  0  0  0  0  0  0  0
   -0.8500    4.8100    0.3140 C   0  0  0  0  0  0  0  0  0  0  0  0
    0.2920    5.5080    0.1450 C   0  0  2  0  0  0  0  0  0  0  0  0
    1.4120    4.8040   -0.2070 C   0  0  1  0  0  0  0  0  0  0  0  0
    1.3720    3.4300   -0.2980 C   0  0  1  0  0  0  0  0  0  0  0  0
    0.1650    7.0180    0.4690 C   0  0  1  0  0  0  0  0  0  0  0  0
   -1.7580    5.3340    0.6160 H   0  0  0  0  0  0  0  0  0  0  0  0
   -2.2220    2.8820    0.3370 N   0  0  0  0  0  0  0  0  0  0  0  0
    2.6730    2.6740   -0.5490 C   0  0  0  0  0  0  0  0  0  0  0  0
    2.6960    5.5430   -0.5380 C   0  0  0  0  0  0  0  0  0  0  0  0
    1.2750    8.0580    0.3340 C   0  0  0  0  0  0  0  0  0  0  0  0
    0.5450    9.3510    0.6880 C   0  0  2  0  0  0  0  0  0  0  0  0
   -0.8710    9.0910    0.3190 N   0  0  0  0  0  0  0  0  0  0  0  0
   -0.8950    7.7510   -0.2560 N   0  0  0  0  0  0  0  0  0  0  0  0
    1.0850   10.5920   -0.0110 C   0  0  0  0  0  0  0  0  0  0  0  0
   -1.8050    7.3140   -0.1010 H   0  0  0  0  0  0  0  0  0  0  0  0
   -1.1790    9.8140   -0.3450 H   0  0  0  0  0  0  0  0  0  0  0  0
    1.6650    8.1250   -0.6890 H   0  0  0  0  0  0  0  0  0  0  0  0
    0.5920    9.5350    1.7670 H   0  0  0  0  0  0  0  0  0  0  0  0
    2.1060    7.8760    1.0210 H   0  0  0  0  0  0  0  0  0  0  0  0
   -0.1060    7.0140    1.5400 H   0  0  0  0  0  0  0  0  0  0  0  0
    2.4960    6.3460   -1.2520 H   0  0  0  0  0  0  0  0  0  0  0  0
    3.4360    4.9370   -1.0660 H   0  0  0  0  0  0  0  0  0  0  0  0
    3.1730    5.9340    0.3650 H   0  0  0  0  0  0  0  0  0  0  0  0
   -2.3450    1.9820   -0.1360 H   0  0  0  0  0  0  0  0  0  0  0  0
   -3.0230    3.4810    0.1590 H   0  0  0  0  0  0  0  0  0  0  0  0
    2.6850    1.6480   -0.1860 H   0  0  0  0  0  0  0  0  0  0  0  0
    3.4990    3.1350    0.0090 H   0  0  0  0  0  0  0  0  0  0  0  0
    2.9200    2.6560   -1.6140 H   0  0  0  0  0  0  0  0  0  0  0  0
    0.1230   11.4960   -0.3100 O   0  0  0  0  0  0  0  0  0  0  0  0
    2.2580   10.8500   -0.2310 O   0  0  0  0  0  0  0  0  0  0  0  0
    0.6130   12.2690   -0.6620 H   0  0  0  0  0  0  0  0  0  0  0  0
  1  5  1  0  0  0  0
  2  1  1  0  0  0  0
  3  2  2  0  0  0  0
  4  2  1  6  0  0  0
  4 10  5  0  0  0  0
  6  4  5  0  0  0  0
  6  7  5  0  0  0  0
  6 13  1  1  0  0  0
  7 12  1  0  0  0  0
  8  7  5  1  0  0  0
  8 11  1  0  0  0  0
  9  8  5  0  0  0  0
  9 15  1  6  0  0  0
 10  9  5  0  0  0  0
 10 14  1  1  0  0  0
 11 19  1  0  0  0  0
 11 26  1  1  0  0  0
 13 30  1  0  0  0  0
 13 31  1  0  0  0  0
 14 32  1  0  0  0  0
 14 33  1  0  0  0  0
 14 34  1  0  0  0  0
 15 27  1  0  0  0  0
 15 28  1  0  0  0  0
 15 29  1  0  0  0  0
 16 11  1  0  0  0  0
 16 23  1  0  0  0  0
 16 25  1  0  0  0  0
 17 16  1  0  0  0  0
 17 24  1  1  0  0  0
 18 17  1  0  0  0  0
 19 18  1  0  0  0  0
 20 17  1  0  0  0  0
 20 36  2  0  0  0  0
 21 19  1  0  0  0  0
 22 18  1  0  0  0  0
 35 20  1  0  0  0  0
 37 35  1  0  0  0  0
M  END
