
 OpenBabel11042013083D

 34 35  0  0  1  0  0  0  0  0999 V2000
    0.9240    0.1760    0.0080 O   0  0  0  0  0  0  0  0  0  0  0  0
   -0.0910    1.0600    0.0140 C   0  0  0  0  0  0  0  0  0  0  0  0
   -1.2410    0.6380    0.0890 O   0  0  0  0  0  0  0  0  0  0  0  0
    0.2070    2.5420   -0.0370 C   0  0  1  0  0  0  0  0  0  0  0  0
    1.8660    0.4190   -0.0430 H   0  0  0  0  0  0  0  0  0  0  0  0
   -0.9020    3.3250   -0.0000 C   0  0  0  0  0  0  0  0  0  0  0  0
   -0.8140    4.6700    0.0350 C   0  0  0  0  0  0  0  0  0  0  0  0
    0.3860    5.2910    0.0350 C   0  0  2  0  0  0  0  0  0  0  0  0
    1.4850    4.5130   -0.0400 C   0  0  0  0  0  0  0  0  0  0  0  0
    1.4120    3.1620   -0.0790 C   0  0  1  0  0  0  0  0  0  0  0  0
    0.5470    6.6460    0.2340 N   0  0  0  0  0  0  0  0  0  0  0  0
   -1.7290    5.2560    0.1030 H   0  0  0  0  0  0  0  0  0  0  0  0
   -1.9000    2.8820    0.0310 H   0  0  0  0  0  0  0  0  0  0  0  0
    2.6340    2.4450   -0.1260 C   0  0  0  0  0  0  0  0  0  0  0  0
    2.4570    5.0030   -0.0380 H   0  0  0  0  0  0  0  0  0  0  0  0
   -0.1360    7.4490   -0.4380 N   0  0  0  0  0  0  0  0  0  0  0  0
   -0.1100    8.7880    0.1780 C   0  0  1  0  0  0  0  0  0  0  0  0
    1.1250    9.6190   -0.1540 C   0  0  0  0  0  0  0  0  0  0  0  0
    0.6840   10.9750    0.3740 C   0  0  2  0  0  0  0  0  0  0  0  0
   -0.7880   10.9990    0.2320 N   0  0  0  0  0  0  0  0  0  0  0  0
   -1.1690    9.6910   -0.2810 N   0  0  0  0  0  0  0  0  0  0  0  0
    1.2440   12.2150   -0.1830 C   0  0  0  0  0  0  0  0  0  0  0  0
   -2.0670    9.3850    0.0980 H   0  0  0  0  0  0  0  0  0  0  0  0
   -1.0530   11.7340   -0.4360 H   0  0  0  0  0  0  0  0  0  0  0  0
    2.0090    9.2420    0.3730 H   0  0  0  0  0  0  0  0  0  0  0  0
    0.9050   10.9980    1.4490 H   0  0  0  0  0  0  0  0  0  0  0  0
    1.3440    9.6150   -1.2300 H   0  0  0  0  0  0  0  0  0  0  0  0
   -0.2070    8.6780    1.2710 H   0  0  0  0  0  0  0  0  0  0  0  0
    1.4140   13.3930   -0.3400 C   0  0  0  0  0  0  0  0  0  0  0  0
    1.3720   14.8270   -0.2560 C   0  0  0  0  0  0  0  0  0  0  0  0
    3.5560    1.7380   -0.1560 N   0  0  0  0  0  0  0  0  0  0  0  0
    0.1160   15.3140   -0.1900 O   0  0  0  0  0  0  0  0  0  0  0  0
    2.3560   15.5360   -0.1460 O   0  0  0  0  0  0  0  0  0  0  0  0
    0.2340   16.2690   -0.0090 H   0  0  0  0  0  0  0  0  0  0  0  0
  1  5  1  0  0  0  0
  2  1  1  0  0  0  0
  3  2  2  0  0  0  0
  4  2  1  1  0  0  0
  4 10  5  0  0  0  0
  6  4  5  0  0  0  0
  6  7  5  0  0  0  0
  6 13  1  0  0  0  0
  7 12  1  0  0  0  0
  8  7  5  0  0  0  0
  8 11  1  1  0  0  0
  9  8  5  0  0  0  0
  9 15  1  0  0  0  0
 10  9  5  0  0  0  0
 10 14  1  1  0  0  0
 14 31  3  0  0  0  0
 16 11  2  0  0  0  0
 17 16  1  0  0  0  0
 17 21  1  0  0  0  0
 17 28  1  1  0  0  0
 18 17  1  0  0  0  0
 18 25  1  0  0  0  0
 18 27  1  0  0  0  0
 19 18  1  0  0  0  0
 19 26  1  1  0  0  0
 20 19  1  0  0  0  0
 21 20  1  0  0  0  0
 22 19  1  0  0  0  0
 23 21  1  0  0  0  0
 24 20  1  0  0  0  0
 29 22  3  0  0  0  0
 30 29  1  0  0  0  0
 30 33  2  0  0  0  0
 32 30  1  0  0  0  0
 34 32  1  0  0  0  0
M  END
