
 OpenBabel11042013083D

 31 32  0  0  1  0  0  0  0  0999 V2000
    0.8580    0.5300    0.4790 O   0  0  0  0  0  0  0  0  0  0  0  0
   -0.2890    1.2200    0.3220 C   0  0  0  0  0  0  0  0  0  0  0  0
   -1.3780    0.6610    0.3120 O   0  0  0  0  0  0  0  0  0  0  0  0
   -0.1390    2.7110    0.1810 C   0  0  2  0  0  0  0  0  0  0  0  0
    1.6530    1.1040    0.4470 H   0  0  0  0  0  0  0  0  0  0  0  0
   -1.2670    3.4260    0.2590 C   0  0  0  0  0  0  0  0  0  0  0  0
   -1.2630    4.7660    0.1020 C   0  0  1  0  0  0  0  0  0  0  0  0
   -0.1050    5.4780   -0.1240 C   0  0  1  0  0  0  0  0  0  0  0  0
    1.0350    4.7100   -0.2580 C   0  0  1  0  0  0  0  0  0  0  0  0
    1.0140    3.3480   -0.0940 C   0  0  2  0  0  0  0  0  0  0  0  0
   -0.1770    7.0710   -0.2290 C   0  0  2  0  0  0  0  0  0  0  0  0
   -2.5630    5.3580    0.1180 C   0  0  0  0  0  0  0  0  0  0  0  0
   -2.2140    2.9110    0.4350 H   0  0  0  0  0  0  0  0  0  0  0  0
    2.1600    2.5670   -0.2410 O   0  0  0  0  0  0  0  0  0  0  0  0
    2.7240    5.4240   -0.7740 Br  0  0  0  0  0  0  0  0  0  0  0  0
   -3.6110    5.8650    0.0810 N   0  0  0  0  0  0  0  0  0  0  0  0
    2.7820    2.9570   -0.8890 H   0  0  0  0  0  0  0  0  0  0  0  0
    1.0540    7.9540    0.0780 C   0  0  0  0  0  0  0  0  0  0  0  0
    0.5570    9.2430    0.7210 C   0  0  2  0  0  0  0  0  0  0  0  0
   -0.8830    9.0580    0.9030 N   0  0  0  0  0  0  0  0  0  0  0  0
   -1.1680    7.6690    0.6960 N   0  0  0  0  0  0  0  0  0  0  0  0
    0.8380   10.5440   -0.0420 C   0  0  0  0  0  0  0  0  0  0  0  0
   -2.1260    7.5800    0.3300 H   0  0  0  0  0  0  0  0  0  0  0  0
   -1.3830    9.6930    0.2630 H   0  0  0  0  0  0  0  0  0  0  0  0
    1.6990    7.4640    0.8180 H   0  0  0  0  0  0  0  0  0  0  0  0
    1.0190    9.3780    1.7070 H   0  0  0  0  0  0  0  0  0  0  0  0
    1.6260    8.1580   -0.8320 H   0  0  0  0  0  0  0  0  0  0  0  0
   -0.4930    7.2970   -1.2610 H   0  0  0  0  0  0  0  0  0  0  0  0
   -0.2500   11.3460   -0.1650 O   0  0  0  0  0  0  0  0  0  0  0  0
    1.9230   10.9260   -0.4520 O   0  0  0  0  0  0  0  0  0  0  0  0
    0.0970   12.2080   -0.4820 H   0  0  0  0  0  0  0  0  0  0  0  0
  1  5  1  0  0  0  0
  2  1  1  0  0  0  0
  3  2  2  0  0  0  0
  4  2  1  6  0  0  0
  4 10  5  0  0  0  0
  6  4  5  0  0  0  0
  6  7  5  0  0  0  0
  6 13  1  0  0  0  0
  7 12  1  6  0  0  0
  8  7  5  0  0  0  0
  8 11  1  6  0  0  0
  9  8  5  0  0  0  0
  9 15  1  6  0  0  0
 10  9  5  0  0  0  0
 10 14  1  6  0  0  0
 11 21  1  0  0  0  0
 11 28  1  6  0  0  0
 12 16  3  0  0  0  0
 14 17  1  0  0  0  0
 18 11  1  0  0  0  0
 18 25  1  0  0  0  0
 18 27  1  0  0  0  0
 19 18  1  0  0  0  0
 19 26  1  1  0  0  0
 20 19  1  0  0  0  0
 21 20  1  0  0  0  0
 22 19  1  0  0  0  0
 22 30  2  0  0  0  0
 23 21  1  0  0  0  0
 24 20  1  0  0  0  0
 29 22  1  0  0  0  0
 31 29  1  0  0  0  0
M  END
