
 OpenBabel11042013083D

 43 45  0  0  1  0  0  0  0  0999 V2000
    1.2250    0.6950    0.0000 O   0  0  0  0  0  0  0  0  0  0  0  0
   -0.0640    1.4000    0.0040 C   0  0  0  0  0  0  0  0  0  0  0  0
   -1.1900    0.7130    0.0000 O   0  0  0  0  0  0  0  0  0  0  0  0
   -0.1500    2.7620    0.0090 C   0  0  2  0  0  0  0  0  0  0  0  0
    2.4780    0.4270   -0.0000 H   0  0  0  0  0  0  0  0  0  0  0  0
   -1.1680    3.2680    0.0030 C   0  0  0  0  0  0  0  0  0  0  0  0
   -1.0600    4.4000    0.0000 C   0  0  0  0  0  0  0  0  0  0  0  0
   -0.0840    5.0530   -0.0000 C   0  0  1  0  0  0  0  0  0  0  0  0
    0.9230    4.5030    0.0000 C   0  0  0  0  0  0  0  0  0  0  0  0
    1.1720    3.4600    0.0070 C   0  0  2  0  0  0  0  0  0  0  0  0
    0.1240    6.0730    0.0000 C   0  0  1  0  0  0  0  0  0  0  0  0
   -1.9140    4.9510   -0.0000 H   0  0  0  0  0  0  0  0  0  0  0  0
   -1.8180    2.6620   -0.0000 H   0  0  0  0  0  0  0  0  0  0  0  0
    0.4150    2.7830   -0.0840 O   0  0  0  0  0  0  0  0  0  0  0  0
    1.9690    4.9940    0.0000 H   0  0  0  0  0  0  0  0  0  0  0  0
   -0.8730    6.3060   -0.0000 C   0  0  0  0  0  0  0  0  0  0  0  0
   -1.6160    7.0600    0.0000 C   0  0  0  0  0  0  0  0  0  0  0  0
   -0.3910    7.5460   -0.0000 C   0  0  1  0  0  0  0  0  0  0  0  0
    1.6310    6.7880   -0.0020 C   0  0  2  0  0  0  0  0  0  0  0  0
    1.1110    6.2250    0.0010 C   0  0  0  0  0  0  0  0  0  0  0  0
   -0.2420    8.5980   -0.0000 C   0  0  1  0  0  0  0  0  0  0  0  0
   -1.6920    7.8030   -0.0000 H   0  0  0  0  0  0  0  0  0  0  0  0
   -1.5600    6.0190   -0.0000 H   0  0  0  0  0  0  0  0  0  0  0  0
    1.7150    5.9770   -0.0000 H   0  0  0  0  0  0  0  0  0  0  0  0
    1.4200    7.9490    0.0000 C   0  0  0  0  0  0  0  0  0  0  0  0
    0.5330    9.3360   -0.0000 C   0  0  0  0  0  0  0  0  0  0  0  0
    0.1510    9.8910    0.0000 N   0  0  0  0  0  0  0  0  0  0  0  0
   -0.6420    9.9940    0.0000 N   0  0  0  0  0  0  0  0  0  0  0  0
   -1.0950    9.1600    0.0000 N   0  0  0  0  0  0  0  0  0  0  0  0
    0.2850   10.7790   -0.0000 C   0  0  0  0  0  0  0  0  0  0  0  0
    1.3330    9.5440   -0.0000 H   0  0  0  0  0  0  0  0  0  0  0  0
    0.2060    8.6600   -0.0000 H   0  0  0  0  0  0  0  0  0  0  0  0
   -0.9040    8.5120   -0.0000 H   0  0  0  0  0  0  0  0  0  0  0  0
    1.4200    7.9500    0.0000 C   0  0  0  0  0  0  0  0  0  0  0  0
    1.3610    8.4860   -0.0010 H   0  0  0  0  0  0  0  0  0  0  0  0
    1.4200    7.9510    0.0000 H   0  0  0  0  0  0  0  0  0  0  0  0
    1.2260    8.4090    0.0010 H   0  0  0  0  0  0  0  0  0  0  0  0
    0.5680    7.3960   -0.0000 H   0  0  0  0  0  0  0  0  0  0  0  0
    2.4940    8.3580   -0.0000 H   0  0  0  0  0  0  0  0  0  0  0  0
    1.2080    2.9910    0.0410 H   0  0  0  0  0  0  0  0  0  0  0  0
   -1.3590   11.7330    0.0000 O   0  0  0  0  0  0  0  0  0  0  0  0
    1.5120   11.4790    0.0000 O   0  0  0  0  0  0  0  0  0  0  0  0
   -1.5270   13.1940   -0.0000 H   0  0  0  0  0  0  0  0  0  0  0  0
  1  5  1  0  0  0  0
  2  1  1  0  0  0  0
  3  2  2  0  0  0  0
  4  2  1  6  0  0  0
  4 10  5  0  0  0  0
  6  4  5  0  0  0  0
  6  7  5  0  0  0  0
  6 13  1  0  0  0  0
  7 12  1  0  0  0  0
  8  7  5  6  0  0  0
  8 11  1  0  0  0  0
  9  8  5  0  0  0  0
  9 15  1  0  0  0  0
 10  9  5  0  0  0  0
 10 14  1  6  0  0  0
 11 16  5  1  0  0  0
 11 20  5  0  0  0  0
 14 40  1  0  0  0  0
 16 17  5  0  0  0  0
 16 23  1  0  0  0  0
 17 22  1  0  0  0  0
 18 17  5  6  0  0  0
 18 21  1  0  0  0  0
 19 18  5  0  0  0  0
 19 25  1  1  0  0  0
 20 19  5  0  0  0  0
 20 24  1  0  0  0  0
 21 29  1  0  0  0  0
 21 33  1  1  0  0  0
 25 38  1  0  0  0  0
 25 39  1  0  0  0  0
 26 21  1  0  0  0  0
 26 31  1  0  0  0  0
 26 32  1  0  0  0  0
 27 26  1  0  0  0  0
 28 27  1  0  0  0  0
 29 28  2  0  0  0  0
 30 27  1  0  0  0  0
 30 42  2  0  0  0  0
 34 35  1  0  0  0  0
 34 36  1  0  0  0  0
 34 37  1  0  0  0  0
 34 25  1  0  0  0  0
 41 30  1  0  0  0  0
 43 41  1  0  0  0  0
M  END
