28

O          1.49900        0.27200        0.44700
C          0.39700        0.81000       -0.12500
O         -0.43100        0.11900       -0.69600
C          0.32800        2.30400       -0.03500
H          2.05400        0.89000        0.95500
C         -0.82900        2.96200        0.23600
C         -0.87700        4.32900        0.21700
C          0.29200        5.01900        0.01600
C          1.43600        4.33800       -0.22000
C          1.45600        2.99700       -0.28000
N          0.34200        6.39600        0.12700
C         -2.16100        5.16500        0.40000
Cl        -2.23100        2.03500        0.71100
H          2.39400        2.50200       -0.52200
H          2.36200        4.89000       -0.37600
C         -3.44900        4.72900       -0.30300
H         -3.27000        4.44500       -1.34400
H         -3.95300        3.91000        0.21300
H         -4.16500        5.55900       -0.30100
H         -1.99500        6.16700       -0.01600
H         -2.34800        5.31500        1.46800
N          0.43800        7.04200       -0.93400
C          0.32900        8.35100       -0.65800
C          0.19400        9.51100       -0.39700
C          0.01500       10.89300       -0.06100
O         -1.26800       11.29700       -0.05900
O          0.93500       11.64400        0.20800
H         -1.21500       12.24300        0.19000
