
 OpenBabel11042013083D

 44 46  0  0  1  0  0  0  0  0999 V2000
    1.3170   -1.1540   -0.0000 O   0  0  0  0  0  0  0  0  0  0  0  0
    0.1030   -0.5690   -0.0000 C   0  0  0  0  0  0  0  0  0  0  0  0
   -0.9280   -1.2240   -0.0000 O   0  0  0  0  0  0  0  0  0  0  0  0
    0.1160    0.9120    0.0010 C   0  0  1  0  0  0  0  0  0  0  0  0
    2.0830   -0.5590    0.0000 H   0  0  0  0  0  0  0  0  0  0  0  0
   -1.0880    1.5260    0.0020 C   0  0  0  0  0  0  0  0  0  0  0  0
   -1.1590    2.8680    0.0040 C   0  0  0  0  0  0  0  0  0  0  0  0
   -0.0290    3.6060    0.0040 C   0  0  2  0  0  0  0  0  0  0  0  0
    1.1600    2.9780    0.0060 C   0  0  0  0  0  0  0  0  0  0  0  0
    1.2430    1.6520    0.0010 C   0  0  0  0  0  0  0  0  0  0  0  0
   -0.0660    5.0670    0.0070 C   0  0  2  0  0  0  0  0  0  0  0  0
   -2.1540    3.2990    0.0030 H   0  0  0  0  0  0  0  0  0  0  0  0
   -2.0160    0.9690   -0.0010 H   0  0  0  0  0  0  0  0  0  0  0  0
    2.2520    1.2680   -0.0000 H   0  0  0  0  0  0  0  0  0  0  0  0
    2.1100    3.4980    0.0040 H   0  0  0  0  0  0  0  0  0  0  0  0
   -1.2330    5.7430    0.0050 C   0  0  0  0  0  0  0  0  0  0  0  0
   -1.2420    7.0740    0.0020 C   0  0  0  0  0  0  0  0  0  0  0  0
   -0.0910    7.7810    0.0010 C   0  0  1  0  0  0  0  0  0  0  0  0
    1.0720    7.1110    0.0010 C   0  0  0  0  0  0  0  0  0  0  0  0
    1.0810    5.7840    0.0040 C   0  0  0  0  0  0  0  0  0  0  0  0
   -0.0840    9.2230   -0.0010 C   0  0  1  0  0  0  0  0  0  0  0  0
   -2.2320    7.5130    0.0000 H   0  0  0  0  0  0  0  0  0  0  0  0
   -2.2090    5.2740    0.0060 H   0  0  0  0  0  0  0  0  0  0  0  0
    2.0750    5.3640    0.0050 H   0  0  0  0  0  0  0  0  0  0  0  0
    2.0450    7.5850   -0.0020 H   0  0  0  0  0  0  0  0  0  0  0  0
   -1.2650    9.8640   -0.0010 C   0  0  0  0  0  0  0  0  0  0  0  0
   -1.3110   11.1860   -0.0020 C   0  0  0  0  0  0  0  0  0  0  0  0
   -0.1760   11.9020   -0.0020 C   0  0  2  0  0  0  0  0  0  0  0  0
    1.0180   11.2880   -0.0010 C   0  0  0  0  0  0  0  0  0  0  0  0
    1.0580    9.9510   -0.0020 C   0  0  0  0  0  0  0  0  0  0  0  0
   -0.2440   13.3230    0.0020 C   0  0  0  0  0  0  0  0  0  0  0  0
   -2.3070   11.6010   -0.0000 H   0  0  0  0  0  0  0  0  0  0  0  0
   -2.2350    9.3870   -0.0010 H   0  0  0  0  0  0  0  0  0  0  0  0
    2.0490    9.5140   -0.0030 H   0  0  0  0  0  0  0  0  0  0  0  0
    1.9580   11.8350   -0.0010 H   0  0  0  0  0  0  0  0  0  0  0  0
   -1.4070   13.9780    0.0060 C   0  0  0  0  0  0  0  0  0  0  0  0
   -1.3360   15.3640    0.0070 C   0  0  0  0  0  0  0  0  0  0  0  0
   -2.3890   13.5260    0.0050 H   0  0  0  0  0  0  0  0  0  0  0  0
    0.7040   13.8580    0.0010 H   0  0  0  0  0  0  0  0  0  0  0  0
   -1.0080   16.5080    0.0040 C   0  0  0  0  0  0  0  0  0  0  0  0
   -0.5040   17.8170   -0.0000 C   0  0  0  0  0  0  0  0  0  0  0  0
   -1.4820   18.7230   -0.0010 O   0  0  0  0  0  0  0  0  0  0  0  0
    0.6850   18.0850   -0.0010 O   0  0  0  0  0  0  0  0  0  0  0  0
   -0.9990   19.5680   -0.0010 H   0  0  0  0  0  0  0  0  0  0  0  0
  1  5  1  0  0  0  0
  2  1  1  0  0  0  0
  3  2  2  0  0  0  0
  4  2  1  1  0  0  0
  4 10  5  0  0  0  0
  6  4  5  0  0  0  0
  6  7  5  0  0  0  0
  6 13  1  0  0  0  0
  7 12  1  0  0  0  0
  8  7  5  1  0  0  0
  8 11  1  0  0  0  0
  9  8  5  0  0  0  0
  9 15  1  0  0  0  0
 10  9  5  0  0  0  0
 10 14  1  0  0  0  0
 11 16  5  6  0  0  0
 11 20  5  0  0  0  0
 16 17  5  0  0  0  0
 16 23  1  0  0  0  0
 17 22  1  0  0  0  0
 18 17  5  6  0  0  0
 18 21  1  0  0  0  0
 19 18  5  0  0  0  0
 19 25  1  0  0  0  0
 20 19  5  0  0  0  0
 20 24  1  0  0  0  0
 21 26  5  1  0  0  0
 21 30  5  0  0  0  0
 26 27  5  0  0  0  0
 26 33  1  0  0  0  0
 27 32  1  0  0  0  0
 28 27  5  0  0  0  0
 28 31  1  1  0  0  0
 29 28  5  0  0  0  0
 29 35  1  0  0  0  0
 30 29  5  0  0  0  0
 30 34  1  0  0  0  0
 31 39  1  0  0  0  0
 36 31  2  0  0  0  0
 36 38  1  0  0  0  0
 37 36  1  0  0  0  0
 40 37  3  0  0  0  0
 41 40  1  0  0  0  0
 41 43  2  0  0  0  0
 42 41  1  0  0  0  0
 44 42  1  0  0  0  0
M  END
