48

O          1.68600       -1.34200        0.19700
C          0.43400       -0.85100        0.29400
O         -0.52200       -1.58400        0.50600
C          0.30500        0.61900        0.06800
H          2.36800       -0.71800       -0.09800
C         -0.96100        1.06600       -0.08400
C         -1.19600        2.35900       -0.35600
C         -0.17600        3.23100       -0.48200
C          1.08500        2.79300       -0.28000
C          1.33000        1.49900       -0.00000
N         -0.38300        4.54000       -0.79800
H         -2.22000        2.70600       -0.47700
H         -1.81600        0.39900       -0.00100
H          2.36400        1.21900        0.15900
H          1.91200        3.49800       -0.34300
N         -1.29200        5.07900       -0.14100
C         -1.20700        6.52500       -0.19300
C          0.22000        6.99100       -0.03800
N          0.04900        8.10800        0.84900
N         -1.16900        7.99500        1.50400
N         -1.86800        7.08800        0.99300
C          0.28900        9.35900        0.33200
H          0.68700        7.26300       -0.99100
H          0.86900        6.28100        0.48800
H         -1.67600        6.92300       -1.10100
C         -0.72300       10.07300       -0.18700
C         -0.53600       11.35100       -0.51900
C          0.64100       11.97000       -0.26100
C          1.70100       11.19600        0.08300
C          1.52800        9.88700        0.36100
C          0.66000       13.44500       -0.21600
H         -1.41100       11.87200       -0.89400
H         -1.72200        9.65700       -0.29000
H          2.37000        9.29200        0.70600
H          2.69100       11.61000        0.23400
C         -0.51100       14.08900        0.00700
C         -0.59600       15.42500        0.10600
C          0.52500       16.15900        0.01400
C          1.72000       15.54800       -0.14100
C          1.78500       14.20400       -0.26300
C          0.42000       17.63000        0.09800
H         -1.56800       15.86400        0.26700
H         -1.45600       13.56700        0.14000
H          2.76300       13.75000       -0.38300
H          2.63600       16.13300       -0.16900
O         -0.84900       18.07000        0.01100
O          1.35000       18.41800        0.19300
H         -0.77200       19.04400        0.03400
