
 OpenBabel11042013083D

 31 32  0  0  1  0  0  0  0  0999 V2000
    1.2570    0.0900   -0.1390 O   0  0  0  0  0  0  0  0  0  0  0  0
    0.0720    0.7290   -0.1780 C   0  0  0  0  0  0  0  0  0  0  0  0
   -0.9720    0.1170   -0.3530 O   0  0  0  0  0  0  0  0  0  0  0  0
    0.1240    2.2120    0.0270 C   0  0  2  0  0  0  0  0  0  0  0  0
    2.0400    0.6040    0.1110 H   0  0  0  0  0  0  0  0  0  0  0  0
   -1.0740    2.8230    0.1700 C   0  0  0  0  0  0  0  0  0  0  0  0
   -1.1420    4.1490    0.3740 C   0  0  0  0  0  0  0  0  0  0  0  0
   -0.0130    4.8840    0.4380 C   0  0  1  0  0  0  0  0  0  0  0  0
    1.1880    4.2950    0.2570 C   0  0  1  0  0  0  0  0  0  0  0  0
    1.2520    2.9610    0.0560 C   0  0  0  0  0  0  0  0  0  0  0  0
   -0.1360    6.2910    0.5620 C   0  0  0  0  0  0  0  0  0  0  0  0
   -2.1210    4.6240    0.4670 H   0  0  0  0  0  0  0  0  0  0  0  0
   -2.0060    2.2590    0.1120 H   0  0  0  0  0  0  0  0  0  0  0  0
    2.2310    2.5240   -0.1030 H   0  0  0  0  0  0  0  0  0  0  0  0
    2.4030    5.0670    0.2400 C   0  0  0  0  0  0  0  0  0  0  0  0
   -0.2300    7.4660    0.3740 C   0  0  0  0  0  0  0  0  0  0  0  0
   -0.3630    8.7550   -0.2620 C   0  0  2  0  0  0  0  0  0  0  0  0
    0.8550    9.6360   -0.2460 C   0  0  0  0  0  0  0  0  0  0  0  0
    0.1380   10.8760   -0.3760 N   0  0  0  0  0  0  0  0  0  0  0  0
   -1.0730   10.7970    0.2750 N   0  0  0  0  0  0  0  0  0  0  0  0
   -1.3490    9.5800    0.4410 N   0  0  0  0  0  0  0  0  0  0  0  0
    0.7870   12.1500   -0.2650 C   0  0  0  0  0  0  0  0  0  0  0  0
    1.4100    9.5900    0.7010 H   0  0  0  0  0  0  0  0  0  0  0  0
    1.5340    9.4190   -1.0770 H   0  0  0  0  0  0  0  0  0  0  0  0
   -0.7180    8.6050   -1.2900 H   0  0  0  0  0  0  0  0  0  0  0  0
    1.0070   13.3220   -0.1430 C   0  0  0  0  0  0  0  0  0  0  0  0
    0.8660   14.7290    0.0350 C   0  0  0  0  0  0  0  0  0  0  0  0
    3.3820    5.6820    0.1990 N   0  0  0  0  0  0  0  0  0  0  0  0
   -0.4220   15.1170   -0.0230 O   0  0  0  0  0  0  0  0  0  0  0  0
    1.7880   15.4950    0.2420 O   0  0  0  0  0  0  0  0  0  0  0  0
   -0.4020   16.0770    0.1480 H   0  0  0  0  0  0  0  0  0  0  0  0
  1  5  1  0  0  0  0
  2  1  1  0  0  0  0
  3  2  2  0  0  0  0
  4  2  1  6  0  0  0
  4 10  5  0  0  0  0
  6  4  5  0  0  0  0
  6  7  5  0  0  0  0
  6 13  1  0  0  0  0
  7 12  1  0  0  0  0
  8  7  5  0  0  0  0
  8 11  1  6  0  0  0
  9  8  5  0  0  0  0
  9 15  1  6  0  0  0
 10  9  5  0  0  0  0
 10 14  1  0  0  0  0
 15 28  3  0  0  0  0
 16 11  3  0  0  0  0
 17 16  1  0  0  0  0
 17 21  1  0  0  0  0
 17 25  1  6  0  0  0
 18 17  1  0  0  0  0
 18 23  1  0  0  0  0
 18 24  1  0  0  0  0
 19 18  1  0  0  0  0
 20 19  1  0  0  0  0
 21 20  2  0  0  0  0
 22 19  1  0  0  0  0
 26 22  3  0  0  0  0
 27 26  1  0  0  0  0
 27 30  2  0  0  0  0
 29 27  1  0  0  0  0
 31 29  1  0  0  0  0
M  END
