31

O          1.25700        0.09000       -0.13900
C          0.07200        0.72900       -0.17800
O         -0.97200        0.11700       -0.35300
C          0.12400        2.21200        0.02700
H          2.04000        0.60400        0.11100
C         -1.07400        2.82300        0.17000
C         -1.14200        4.14900        0.37400
C         -0.01300        4.88400        0.43800
C          1.18800        4.29500        0.25700
C          1.25200        2.96100        0.05600
C         -0.13600        6.29100        0.56200
H         -2.12100        4.62400        0.46700
H         -2.00600        2.25900        0.11200
H          2.23100        2.52400       -0.10300
C          2.40300        5.06700        0.24000
C         -0.23000        7.46600        0.37400
C         -0.36300        8.75500       -0.26200
C          0.85500        9.63600       -0.24600
N          0.13800       10.87600       -0.37600
N         -1.07300       10.79700        0.27500
N         -1.34900        9.58000        0.44100
C          0.78700       12.15000       -0.26500
H          1.41000        9.59000        0.70100
H          1.53400        9.41900       -1.07700
H         -0.71800        8.60500       -1.29000
C          1.00700       13.32200       -0.14300
C          0.86600       14.72900        0.03500
N          3.38200        5.68200        0.19900
O         -0.42200       15.11700       -0.02300
O          1.78800       15.49500        0.24200
H         -0.40200       16.07700        0.14800
