
 OpenBabel11042013083D

 41 42  0  0  1  0  0  0  0  0999 V2000
    1.5300   -0.0760    0.0150 O   0  0  0  0  0  0  0  0  0  0  0  0
    0.3440    0.5680   -0.0840 C   0  0  0  0  0  0  0  0  0  0  0  0
   -0.6810   -0.0950   -0.1550 O   0  0  0  0  0  0  0  0  0  0  0  0
    0.3860    2.0840   -0.1020 C   0  0  2  0  0  0  0  0  0  0  0  0
    2.3360    0.4450    0.1300 H   0  0  0  0  0  0  0  0  0  0  0  0
   -0.7660    2.8280   -0.0720 C   0  0  2  0  0  0  0  0  0  0  0  0
   -0.6520    4.1860   -0.1100 C   0  0  0  0  0  0  0  0  0  0  0  0
    0.5320    4.8280   -0.1880 C   0  0  2  0  0  0  0  0  0  0  0  0
    1.6440    4.0740   -0.1930 C   0  0  0  0  0  0  0  0  0  0  0  0
    1.5760    2.7310   -0.1590 C   0  0  0  0  0  0  0  0  0  0  0  0
    0.6900    6.2800   -0.1620 C   0  0  0  0  0  0  0  0  0  0  0  0
   -1.5540    4.7860   -0.0680 H   0  0  0  0  0  0  0  0  0  0  0  0
   -2.1600    2.1830    0.0050 C   0  0  0  0  0  0  0  0  0  0  0  0
    2.5340    2.2320   -0.1910 H   0  0  0  0  0  0  0  0  0  0  0  0
    2.6260    4.5420   -0.2230 H   0  0  0  0  0  0  0  0  0  0  0  0
   -0.2580    7.2120   -0.3550 C   0  0  0  0  0  0  0  0  0  0  0  0
   -0.0740    8.6280    0.0980 C   0  0  1  0  0  0  0  0  0  0  0  0
   -1.2750    6.9110   -0.5900 H   0  0  0  0  0  0  0  0  0  0  0  0
    1.6830    6.6390    0.1140 H   0  0  0  0  0  0  0  0  0  0  0  0
    0.8410    9.4810   -0.6310 O   0  0  0  0  0  0  0  0  0  0  0  0
   -0.8860   10.8410    0.1790 C   0  0  0  0  0  0  0  0  0  0  0  0
   -1.3690    9.4180    0.0770 C   0  0  0  0  0  0  0  0  0  0  0  0
    1.1330   11.9870   -0.5020 C   0  0  0  0  0  0  0  0  0  0  0  0
   -2.0490    9.1390    0.8970 H   0  0  0  0  0  0  0  0  0  0  0  0
   -1.3110   11.4190   -0.6490 H   0  0  0  0  0  0  0  0  0  0  0  0
   -1.1710   11.3360    1.1110 H   0  0  0  0  0  0  0  0  0  0  0  0
   -1.9010    9.2820   -0.8700 H   0  0  0  0  0  0  0  0  0  0  0  0
    1.1060   10.6170    1.0460 H   0  0  0  0  0  0  0  0  0  0  0  0
    0.6370   10.7370    0.0600 C   0  0  2  0  0  0  0  0  0  0  0  0
    0.2950    8.5720    1.1330 H   0  0  0  0  0  0  0  0  0  0  0  0
   -3.3800    3.0960    0.1380 C   0  0  0  0  0  0  0  0  0  0  0  0
   -3.3250    3.7060    1.0450 H   0  0  0  0  0  0  0  0  0  0  0  0
   -3.4810    3.7570   -0.7300 H   0  0  0  0  0  0  0  0  0  0  0  0
   -4.2950    2.4960    0.1990 H   0  0  0  0  0  0  0  0  0  0  0  0
   -2.1910    1.5090    0.8710 H   0  0  0  0  0  0  0  0  0  0  0  0
   -2.3150    1.5850   -0.9020 H   0  0  0  0  0  0  0  0  0  0  0  0
    1.1840   13.1890   -0.5670 C   0  0  0  0  0  0  0  0  0  0  0  0
    0.9610   14.5940   -0.3480 C   0  0  0  0  0  0  0  0  0  0  0  0
   -0.3450   14.9060   -0.1900 O   0  0  0  0  0  0  0  0  0  0  0  0
    1.8460   15.4170   -0.2050 O   0  0  0  0  0  0  0  0  0  0  0  0
   -0.3410   15.8600    0.0250 H   0  0  0  0  0  0  0  0  0  0  0  0
  1  5  1  0  0  0  0
  2  1  1  0  0  0  0
  3  2  2  0  0  0  0
  4  2  1  6  0  0  0
  4 10  5  0  0  0  0
  6  4  5  0  0  0  0
  6  7  5  0  0  0  0
  6 13  1  1  0  0  0
  7 12  1  0  0  0  0
  8  7  5  0  0  0  0
  8 11  1  1  0  0  0
  9  8  5  0  0  0  0
  9 15  1  0  0  0  0
 10  9  5  0  0  0  0
 10 14  1  0  0  0  0
 11 19  1  0  0  0  0
 13 35  1  0  0  0  0
 13 36  1  0  0  0  0
 16 11  2  0  0  0  0
 16 18  1  0  0  0  0
 17 16  1  0  0  0  0
 17 22  1  0  0  0  0
 17 30  1  1  0  0  0
 20 17  1  0  0  0  0
 21 29  1  0  0  0  0
 21 26  1  0  0  0  0
 22 21  1  0  0  0  0
 22 27  1  0  0  0  0
 23 29  1  0  0  0  0
 24 22  1  0  0  0  0
 25 21  1  0  0  0  0
 29 20  1  0  0  0  0
 29 28  1  1  0  0  0
 31 32  1  0  0  0  0
 31 33  1  0  0  0  0
 31 34  1  0  0  0  0
 31 13  1  0  0  0  0
 37 23  3  0  0  0  0
 38 37  1  0  0  0  0
 38 40  2  0  0  0  0
 39 38  1  0  0  0  0
 41 39  1  0  0  0  0
M  END
