
 OpenBabel11042013083D

 47 50  0  0  1  0  0  0  0  0999 V2000
    1.6400   -1.0310    0.3360 O   0  0  0  0  0  0  0  0  0  0  0  0
    0.3990   -0.6080    0.6510 C   0  0  0  0  0  0  0  0  0  0  0  0
   -0.4450   -1.3350    1.1640 O   0  0  0  0  0  0  0  0  0  0  0  0
    0.1430    0.8050    0.2600 C   0  0  1  0  0  0  0  0  0  0  0  0
    2.1510   -0.4110   -0.2100 H   0  0  0  0  0  0  0  0  0  0  0  0
   -1.0710    1.1450   -0.2100 C   0  0  0  0  0  0  0  0  0  0  0  0
   -1.3260    2.4080   -0.6020 C   0  0  0  0  0  0  0  0  0  0  0  0
   -0.3780    3.3650   -0.5120 C   0  0  2  0  0  0  0  0  0  0  0  0
    0.8220    3.0050    0.0190 C   0  0  0  0  0  0  0  0  0  0  0  0
    1.0960    1.7450    0.3910 C   0  0  0  0  0  0  0  0  0  0  0  0
   -0.5810    4.8060   -0.8070 C   0  0  1  0  0  0  0  0  0  0  0  0
   -2.3250    2.6400   -0.9570 H   0  0  0  0  0  0  0  0  0  0  0  0
   -1.8700    0.3980   -0.2550 H   0  0  0  0  0  0  0  0  0  0  0  0
    2.0700    1.5220    0.8200 H   0  0  0  0  0  0  0  0  0  0  0  0
    1.6130    3.7400    0.1850 H   0  0  0  0  0  0  0  0  0  0  0  0
   -1.6080    5.5520   -0.3170 C   0  0  2  0  0  0  0  0  0  0  0  0
   -1.4200    6.8700   -0.1010 C   0  0  0  0  0  0  0  0  0  0  0  0
   -0.1830    7.3870   -0.2660 C   0  0  2  0  0  0  0  0  0  0  0  0
    0.6970    6.7520   -1.0630 C   0  0  0  0  0  0  0  0  0  0  0  0
    0.4830    5.4610   -1.3470 C   0  0  0  0  0  0  0  0  0  0  0  0
    0.3710    8.3420    0.7670 C   0  0  1  0  0  0  0  0  0  0  0  0
   -2.1850    7.4270    0.4390 H   0  0  0  0  0  0  0  0  0  0  0  0
   -3.0960    4.9090    0.3200 Cl  0  0  0  0  0  0  0  0  0  0  0  0
    1.2930    4.9140   -1.8280 H   0  0  0  0  0  0  0  0  0  0  0  0
    1.6730    7.1750   -1.2920 H   0  0  0  0  0  0  0  0  0  0  0  0
    1.0120    9.6250    0.3630 C   0  0  0  0  0  0  0  0  0  0  0  0
    0.4070   10.5300    1.3110 N   0  0  0  0  0  0  0  0  0  0  0  0
   -0.5620    9.9360    2.0640 N   0  0  0  0  0  0  0  0  0  0  0  0
   -0.6190    8.7200    1.7990 N   0  0  0  0  0  0  0  0  0  0  0  0
    0.1660   11.8890    0.9380 C   0  0  1  0  0  0  0  0  0  0  0  0
    0.8080    9.9150   -0.6700 H   0  0  0  0  0  0  0  0  0  0  0  0
    2.0940    9.6090    0.5410 H   0  0  0  0  0  0  0  0  0  0  0  0
    1.1230    7.7510    1.3090 H   0  0  0  0  0  0  0  0  0  0  0  0
    1.2450   12.3340    0.1230 O   0  0  0  0  0  0  0  0  0  0  0  0
   -0.7440   13.1000   -0.9060 C   0  0  0  0  0  0  0  0  0  0  0  0
   -1.0890   12.0290    0.0940 C   0  0  0  0  0  0  0  0  0  0  0  0
    1.0640   14.7150    0.0140 C   0  0  0  0  0  0  0  0  0  0  0  0
   -1.3250   11.0990   -0.4410 H   0  0  0  0  0  0  0  0  0  0  0  0
   -1.4040   13.9660   -0.8150 H   0  0  0  0  0  0  0  0  0  0  0  0
   -0.8940   12.7060   -1.9190 H   0  0  0  0  0  0  0  0  0  0  0  0
   -1.9660   12.2620    0.7060 H   0  0  0  0  0  0  0  0  0  0  0  0
    1.2660   13.4060   -1.6410 H   0  0  0  0  0  0  0  0  0  0  0  0
    0.7340   13.3990   -0.6830 C   0  0  1  0  0  0  0  0  0  0  0  0
    0.1160   12.5040    1.8450 H   0  0  0  0  0  0  0  0  0  0  0  0
   -0.0100   15.4380    0.3860 O   0  0  0  0  0  0  0  0  0  0  0  0
    2.1840   15.1220    0.2880 O   0  0  0  0  0  0  0  0  0  0  0  0
    0.3870   16.2060    0.8490 H   0  0  0  0  0  0  0  0  0  0  0  0
  1  5  1  0  0  0  0
  2  1  1  0  0  0  0
  3  2  2  0  0  0  0
  4  2  1  1  0  0  0
  4 10  5  0  0  0  0
  6  4  5  0  0  0  0
  6  7  5  0  0  0  0
  6 13  1  0  0  0  0
  7 12  1  0  0  0  0
  8  7  5  1  0  0  0
  8 11  1  0  0  0  0
  9  8  5  0  0  0  0
  9 15  1  0  0  0  0
 10  9  5  0  0  0  0
 10 14  1  0  0  0  0
 11 20  5  1  0  0  0
 16 11  5  0  0  0  0
 16 17  5  0  0  0  0
 16 23  1  1  0  0  0
 17 22  1  0  0  0  0
 18 17  5  1  0  0  0
 18 21  1  0  0  0  0
 19 18  5  0  0  0  0
 19 25  1  0  0  0  0
 20 19  5  0  0  0  0
 20 24  1  0  0  0  0
 21 29  1  0  0  0  0
 21 33  1  1  0  0  0
 26 21  1  0  0  0  0
 26 31  1  0  0  0  0
 26 32  1  0  0  0  0
 27 26  1  0  0  0  0
 28 27  1  0  0  0  0
 29 28  2  0  0  0  0
 30 27  1  0  0  0  0
 30 36  1  0  0  0  0
 30 44  1  1  0  0  0
 34 30  1  0  0  0  0
 35 43  1  0  0  0  0
 35 40  1  0  0  0  0
 36 35  1  0  0  0  0
 36 41  1  0  0  0  0
 37 43  1  0  0  0  0
 37 46  2  0  0  0  0
 38 36  1  0  0  0  0
 39 35  1  0  0  0  0
 43 34  1  0  0  0  0
 43 42  1  6  0  0  0
 45 37  1  0  0  0  0
 47 45  1  0  0  0  0
M  END
