
 OpenBabel11042013083D

 39 40  0  0  1  0  0  0  0  0999 V2000
    0.4750    0.5200    0.0540 O   0  0  0  0  0  0  0  0  0  0  0  0
   -0.5090    1.4170   -0.1440 C   0  0  0  0  0  0  0  0  0  0  0  0
   -1.6400    1.0250   -0.4050 O   0  0  0  0  0  0  0  0  0  0  0  0
   -0.1630    2.8800    0.0260 C   0  0  2  0  0  0  0  0  0  0  0  0
    1.3520    0.9090    0.2200 H   0  0  0  0  0  0  0  0  0  0  0  0
   -1.2700    3.6450    0.1550 C   0  0  0  0  0  0  0  0  0  0  0  0
   -1.1810    4.9710    0.3270 C   0  0  0  0  0  0  0  0  0  0  0  0
    0.0170    5.5960    0.3610 C   0  0  1  0  0  0  0  0  0  0  0  0
    1.1620    4.8580    0.1950 C   0  0  1  0  0  0  0  0  0  0  0  0
    1.0550    3.4870    0.0500 C   0  0  1  0  0  0  0  0  0  0  0  0
    0.0240    7.0530    0.5630 C   0  0  0  0  0  0  0  0  0  0  0  0
   -2.1060    5.5350    0.4390 H   0  0  0  0  0  0  0  0  0  0  0  0
   -2.2670    3.2030    0.1300 H   0  0  0  0  0  0  0  0  0  0  0  0
    2.6550    2.4360   -0.1100 Br  0  0  0  0  0  0  0  0  0  0  0  0
    2.5700    5.4930    0.1430 C   0  0  0  0  0  0  0  0  0  0  0  0
    2.8020    6.9540   -0.2360 C   0  0  0  0  0  0  0  0  0  0  0  0
    3.8590    7.1070   -0.4830 H   0  0  0  0  0  0  0  0  0  0  0  0
    2.2190    7.2420   -1.1160 H   0  0  0  0  0  0  0  0  0  0  0  0
    2.5910    7.6280    0.5970 H   0  0  0  0  0  0  0  0  0  0  0  0
    3.1450    4.9710   -0.6280 H   0  0  0  0  0  0  0  0  0  0  0  0
    3.0670    5.3100    1.1070 H   0  0  0  0  0  0  0  0  0  0  0  0
   -0.5450    7.9170   -0.2960 C   0  0  0  0  0  0  0  0  0  0  0  0
   -0.3300    9.3960   -0.4620 C   0  0  2  0  0  0  0  0  0  0  0  0
   -1.1430    7.4960   -1.1050 H   0  0  0  0  0  0  0  0  0  0  0  0
    0.6200    7.4160    1.3970 H   0  0  0  0  0  0  0  0  0  0  0  0
    0.8980   10.1230    0.0700 C   0  0  0  0  0  0  0  0  0  0  0  0
    0.5520   11.5530   -0.3370 C   0  0  1  0  0  0  0  0  0  0  0  0
   -0.9340   11.6210   -0.2220 N   0  0  0  0  0  0  0  0  0  0  0  0
   -1.3880   10.2550    0.0700 N   0  0  0  0  0  0  0  0  0  0  0  0
    1.2460   12.6620    0.4400 C   0  0  0  0  0  0  0  0  0  0  0  0
   -2.2750   10.0550   -0.4000 H   0  0  0  0  0  0  0  0  0  0  0  0
   -1.1790   12.2830    0.5240 H   0  0  0  0  0  0  0  0  0  0  0  0
    1.8250    9.7890   -0.4080 H   0  0  0  0  0  0  0  0  0  0  0  0
    0.8100   11.7110   -1.3920 H   0  0  0  0  0  0  0  0  0  0  0  0
    1.0120   10.0230    1.1580 H   0  0  0  0  0  0  0  0  0  0  0  0
   -0.3140    9.5220   -1.5600 H   0  0  0  0  0  0  0  0  0  0  0  0
    0.4790   13.7670    0.5950 O   0  0  0  0  0  0  0  0  0  0  0  0
    2.4080   12.6680    0.8140 O   0  0  0  0  0  0  0  0  0  0  0  0
    1.0820   14.4410    0.9720 H   0  0  0  0  0  0  0  0  0  0  0  0
  1  5  1  0  0  0  0
  2  1  1  0  0  0  0
  3  2  2  0  0  0  0
  4  2  1  6  0  0  0
  4 10  5  0  0  0  0
  6  4  5  0  0  0  0
  6  7  5  0  0  0  0
  6 13  1  0  0  0  0
  7 12  1  0  0  0  0
  8  7  5  0  0  0  0
  8 11  1  6  0  0  0
  9  8  5  0  0  0  0
  9 15  1  6  0  0  0
 10  9  5  0  0  0  0
 10 14  1  1  0  0  0
 11 25  1  0  0  0  0
 15 20  1  0  0  0  0
 15 21  1  0  0  0  0
 16 17  1  0  0  0  0
 16 18  1  0  0  0  0
 16 19  1  0  0  0  0
 16 15  1  0  0  0  0
 22 11  2  0  0  0  0
 22 24  1  0  0  0  0
 23 22  1  0  0  0  0
 23 29  1  0  0  0  0
 23 36  1  6  0  0  0
 26 23  1  0  0  0  0
 26 33  1  0  0  0  0
 26 35  1  0  0  0  0
 27 26  1  0  0  0  0
 27 34  1  6  0  0  0
 28 27  1  0  0  0  0
 29 28  1  0  0  0  0
 30 27  1  0  0  0  0
 30 38  2  0  0  0  0
 31 29  1  0  0  0  0
 32 28  1  0  0  0  0
 37 30  1  0  0  0  0
 39 37  1  0  0  0  0
M  END
