
 OpenBabel11042013083D

 40 42  0  0  1  0  0  0  0  0999 V2000
    1.1130   -0.6000   -0.0030 O   0  0  0  0  0  0  0  0  0  0  0  0
   -0.0470    0.0940   -0.0100 C   0  0  0  0  0  0  0  0  0  0  0  0
   -1.0950   -0.5300   -0.0430 O   0  0  0  0  0  0  0  0  0  0  0  0
    0.0610    1.6010    0.0120 C   0  0  2  0  0  0  0  0  0  0  0  0
    1.9540   -0.1260    0.0280 H   0  0  0  0  0  0  0  0  0  0  0  0
   -1.0490    2.3940    0.0220 C   0  0  2  0  0  0  0  0  0  0  0  0
   -0.9040    3.7420    0.0230 C   0  0  0  0  0  0  0  0  0  0  0  0
    0.3050    4.3430    0.0070 C   0  0  2  0  0  0  0  0  0  0  0  0
    1.3930    3.5490    0.0140 C   0  0  0  0  0  0  0  0  0  0  0  0
    1.2750    2.2090    0.0140 C   0  0  0  0  0  0  0  0  0  0  0  0
    0.4940    5.7910   -0.0110 C   0  0  0  0  0  0  0  0  0  0  0  0
   -1.8060    4.3450    0.0340 H   0  0  0  0  0  0  0  0  0  0  0  0
   -2.8480    1.7960    0.0390 Br  0  0  0  0  0  0  0  0  0  0  0  0
    2.2160    1.6780    0.0100 H   0  0  0  0  0  0  0  0  0  0  0  0
    2.3920    3.9830    0.0130 H   0  0  0  0  0  0  0  0  0  0  0  0
   -0.4740    6.7190   -0.0770 C   0  0  0  0  0  0  0  0  0  0  0  0
   -0.3160    8.1660   -0.0570 C   0  0  1  0  0  0  0  0  0  0  0  0
   -1.5110    6.3950   -0.1120 H   0  0  0  0  0  0  0  0  0  0  0  0
    1.5310    6.1170    0.0340 H   0  0  0  0  0  0  0  0  0  0  0  0
   -1.4380    8.9180   -0.0570 C   0  0  0  0  0  0  0  0  0  0  0  0
   -1.3760   10.2550    0.0380 C   0  0  0  0  0  0  0  0  0  0  0  0
   -0.1890   10.8970    0.1380 C   0  0  2  0  0  0  0  0  0  0  0  0
    0.9380   10.1500    0.0820 C   0  0  0  0  0  0  0  0  0  0  0  0
    0.8740    8.8070   -0.0130 C   0  0  0  0  0  0  0  0  0  0  0  0
   -0.1790   12.3920    0.3620 C   0  0  1  0  0  0  0  0  0  0  0  0
   -2.3110   10.8110    0.0650 H   0  0  0  0  0  0  0  0  0  0  0  0
   -2.4230    8.4580   -0.1080 H   0  0  0  0  0  0  0  0  0  0  0  0
    1.8110    8.2590   -0.0270 H   0  0  0  0  0  0  0  0  0  0  0  0
    1.9220   10.6090    0.1470 H   0  0  0  0  0  0  0  0  0  0  0  0
    1.0280   13.2070   -0.0320 C   0  0  0  0  0  0  0  0  0  0  0  0
    0.3660   14.4600   -0.2870 N   0  0  0  0  0  0  0  0  0  0  0  0
   -0.9540   14.2940   -0.5770 N   0  0  0  0  0  0  0  0  0  0  0  0
   -1.2660   13.0910   -0.3700 N   0  0  0  0  0  0  0  0  0  0  0  0
    0.9210   15.6910   -0.0950 C   0  0  0  0  0  0  0  0  0  0  0  0
    1.7810   13.2890    0.7570 H   0  0  0  0  0  0  0  0  0  0  0  0
    1.4990   12.8760   -0.9640 H   0  0  0  0  0  0  0  0  0  0  0  0
   -0.3690   12.5480    1.4340 H   0  0  0  0  0  0  0  0  0  0  0  0
    0.0500   16.7120   -0.2340 O   0  0  0  0  0  0  0  0  0  0  0  0
    2.0780   15.9190    0.2250 O   0  0  0  0  0  0  0  0  0  0  0  0
    0.5770   17.5040   -0.0080 H   0  0  0  0  0  0  0  0  0  0  0  0
  1  5  1  0  0  0  0
  2  1  1  0  0  0  0
  3  2  2  0  0  0  0
  4  2  1  6  0  0  0
  4 10  5  0  0  0  0
  6  4  5  0  0  0  0
  6  7  5  0  0  0  0
  6 13  1  1  0  0  0
  7 12  1  0  0  0  0
  8  7  5  0  0  0  0
  8 11  1  1  0  0  0
  9  8  5  0  0  0  0
  9 15  1  0  0  0  0
 10  9  5  0  0  0  0
 10 14  1  0  0  0  0
 11 19  1  0  0  0  0
 16 11  2  0  0  0  0
 16 18  1  0  0  0  0
 17 16  1  1  0  0  0
 17 24  5  0  0  0  0
 20 17  5  0  0  0  0
 20 21  5  0  0  0  0
 20 27  1  0  0  0  0
 21 26  1  0  0  0  0
 22 21  5  1  0  0  0
 22 25  1  0  0  0  0
 23 22  5  0  0  0  0
 23 29  1  0  0  0  0
 24 23  5  0  0  0  0
 24 28  1  0  0  0  0
 25 33  1  0  0  0  0
 25 37  1  1  0  0  0
 30 25  1  0  0  0  0
 30 35  1  0  0  0  0
 30 36  1  0  0  0  0
 31 30  1  0  0  0  0
 32 31  1  0  0  0  0
 33 32  2  0  0  0  0
 34 31  1  0  0  0  0
 34 39  2  0  0  0  0
 38 34  1  0  0  0  0
 40 38  1  0  0  0  0
M  END
