
 OpenBabel02032115573D

 54 57  0  0  1  0  0  0  0  0999 V2000
    2.6680    1.4820   -0.0460 O   0  0  0  0  0  0  0  0  0  0  0  0
    1.6480    2.3880    0.1070 C   0  0  0  0  0  0  0  0  0  0  0  0
    0.6550    1.7370    0.3480 O   0  0  0  0  0  0  0  0  0  0  0  0
    1.4260    3.8920    0.1300 C   0  0  1  0  0  0  0  0  0  0  0  0
    2.5030    0.4170    0.0000 H   0  0  0  0  0  0  0  0  0  0  0  0
    0.2100    4.5460    0.1760 C   0  0  1  0  0  0  0  0  0  0  0  0
    0.1310    5.9120    0.2530 C   0  0  0  0  0  0  0  0  0  0  0  0
    1.1690    6.7780    0.2770 C   0  0  2  0  0  0  0  0  0  0  0  0
    2.3500    6.1250    0.2070 C   0  0  0  0  0  0  0  0  0  0  0  0
    2.4700    4.7630    0.1320 C   0  0  0  0  0  0  0  0  0  0  0  0
    0.9280    8.3810    0.5380 C   0  0  1  0  0  0  0  0  0  0  0  0
   -0.8450    6.3730    0.3300 H   0  0  0  0  0  0  0  0  0  0  0  0
   -1.1260    3.7650    0.1410 C   0  0  0  0  0  0  0  0  0  0  0  0
    3.4720    4.3450    0.1000 H   0  0  0  0  0  0  0  0  0  0  0  0
    3.2620    6.7140    0.2450 H   0  0  0  0  0  0  0  0  0  0  0  0
    1.8170    9.6390    0.0580 C   0  0  0  0  0  0  0  0  0  0  0  0
    0.8170   10.8530   -0.3000 C   0  0  1  0  0  0  0  0  0  0  0  0
   -0.4110   10.3990    0.3830 N   0  0  0  0  0  0  0  0  0  0  0  0
   -0.4110    8.9250    0.1660 N   0  0  0  0  0  0  0  0  0  0  0  0
    1.1440   12.4830   -0.5000 C   0  0  2  0  0  0  0  0  0  0  0  0
   -1.1790    8.5410    0.7160 H   0  0  0  0  0  0  0  0  0  0  0  0
   -0.3160   10.5170    1.3900 H   0  0  0  0  0  0  0  0  0  0  0  0
    2.4230    9.3780   -0.8120 H   0  0  0  0  0  0  0  0  0  0  0  0
    0.5960   10.6050   -1.3430 H   0  0  0  0  0  0  0  0  0  0  0  0
    2.4880    9.9350    0.8680 H   0  0  0  0  0  0  0  0  0  0  0  0
    0.9470    8.4550    1.6290 H   0  0  0  0  0  0  0  0  0  0  0  0
    1.1760   13.6400    0.5040 O   0  0  0  0  0  0  0  0  0  0  0  0
    0.1460   14.6670   -1.3060 C   0  0  0  0  0  0  0  0  0  0  0  0
    0.0930   13.1150   -1.4510 C   0  0  0  0  0  0  0  0  0  0  0  0
    0.9620   16.4840    0.4620 C   0  0  1  0  0  0  0  0  0  0  0  0
   -0.9070   12.7710   -1.1700 H   0  0  0  0  0  0  0  0  0  0  0  0
    0.3870   15.1460   -2.2570 H   0  0  0  0  0  0  0  0  0  0  0  0
   -0.8320   15.0320   -0.9800 H   0  0  0  0  0  0  0  0  0  0  0  0
    0.2690   12.8130   -2.4850 H   0  0  0  0  0  0  0  0  0  0  0  0
    2.1810   15.0360   -0.7300 H   0  0  0  0  0  0  0  0  0  0  0  0
    1.2060   14.9960   -0.2370 C   0  0  1  0  0  0  0  0  0  0  0  0
    2.1060   12.5280   -1.0170 H   0  0  0  0  0  0  0  0  0  0  0  0
   -2.4540    4.5420    0.0010 C   0  0  0  0  0  0  0  0  0  0  0  0
   -2.6410    5.1650    0.8790 H   0  0  0  0  0  0  0  0  0  0  0  0
   -3.2850    3.8370   -0.0840 H   0  0  0  0  0  0  0  0  0  0  0  0
   -2.4530    5.1670   -0.8950 H   0  0  0  0  0  0  0  0  0  0  0  0
   -1.2150    3.1680    1.0520 H   0  0  0  0  0  0  0  0  0  0  0  0
   -1.1040    3.0730   -0.7050 H   0  0  0  0  0  0  0  0  0  0  0  0
    1.5620   17.8910   -0.1770 C   0  0  0  0  0  0  0  0  0  0  0  0
    1.1170   19.3410    0.2510 N   0  0  0  0  0  0  0  0  0  0  0  0
    0.4330   18.6650    0.7990 N   0  0  0  0  0  0  0  0  0  0  0  0
    0.4780   17.3310    0.9830 N   0  0  0  0  0  0  0  0  0  0  0  0
    1.6350   20.6090   -0.1590 C   0  0  0  0  0  0  0  0  0  0  0  0
    2.6530   17.8590   -0.0630 H   0  0  0  0  0  0  0  0  0  0  0  0
    1.4020   17.8330   -1.2620 H   0  0  0  0  0  0  0  0  0  0  0  0
    1.2080   16.4190    1.5260 H   0  0  0  0  0  0  0  0  0  0  0  0
    1.1010   21.8060    0.2770 O   0  0  0  0  0  0  0  0  0  0  0  0
    2.5850   20.6320   -0.9140 O   0  0  0  0  0  0  0  0  0  0  0  0
    1.4540   22.7910    0.0000 H   0  0  0  0  0  0  0  0  0  0  0  0
  1  5  1  0  0  0  0
  2  1  1  0  0  0  0
  3  2  2  0  0  0  0
  4  2  1  1  0  0  0
  4 10  5  0  0  0  0
  6  4  5  0  0  0  0
  6  7  5  0  0  0  0
  6 13  1  6  0  0  0
  7 12  1  0  0  0  0
  8  7  5  1  0  0  0
  8 11  1  0  0  0  0
  9  8  5  0  0  0  0
  9 15  1  0  0  0  0
 10  9  5  0  0  0  0
 10 14  1  0  0  0  0
 11 19  1  0  0  0  0
 11 26  1  1  0  0  0
 13 42  1  0  0  0  0
 13 43  1  0  0  0  0
 16 11  1  0  0  0  0
 16 23  1  0  0  0  0
 16 25  1  0  0  0  0
 17 16  1  0  0  0  0
 17 24  1  6  0  0  0
 18 17  1  0  0  0  0
 19 18  1  0  0  0  0
 20 17  1  0  0  0  0
 20 29  1  0  0  0  0
 20 37  1  6  0  0  0
 21 19  1  0  0  0  0
 22 18  1  0  0  0  0
 27 20  1  0  0  0  0
 28 36  1  0  0  0  0
 28 33  1  0  0  0  0
 29 28  1  0  0  0  0
 29 34  1  0  0  0  0
 30 36  1  0  0  0  0
 30 47  1  0  0  0  0
 30 51  1  1  0  0  0
 31 29  1  0  0  0  0
 32 28  1  0  0  0  0
 36 27  1  0  0  0  0
 36 35  1  6  0  0  0
 38 39  1  0  0  0  0
 38 40  1  0  0  0  0
 38 41  1  0  0  0  0
 38 13  1  0  0  0  0
 44 30  1  0  0  0  0
 44 49  1  0  0  0  0
 44 50  1  0  0  0  0
 45 44  1  0  0  0  0
 46 45  1  0  0  0  0
 47 46  2  0  0  0  0
 48 45  1  0  0  0  0
 48 53  2  0  0  0  0
 52 48  1  0  0  0  0
 54 52  1  0  0  0  0
M  END
