36

O          1.23900        0.69100        0.00000
C         -0.01900        1.42100        0.00100
O         -1.14200        0.71400        0.02300
C         -0.01000        2.64400        0.00500
H          2.44800        0.43900       -0.00000
C         -1.03300        3.11100       -0.03900
C         -0.51500        4.70800       -0.07300
C          0.40600        5.58400       -0.01000
C          0.88500        4.47600       -0.01500
C          0.98900        3.12400        0.00600
C          0.15200        6.84200       -0.00500
C         -1.87700        5.02200        0.00000
O         -1.96500        2.18800       -0.91200
F          1.55100        4.02800        0.00000
H          1.76000        5.26200       -0.00100
H         -1.77500        3.20600       -0.46600
C          2.56100        6.86300       -0.00000
C          1.30300        9.22100       -0.00000
N         -0.98400        8.96600       -0.00000
N         -2.10200        7.57900       -0.00100
C          1.04200       11.45300       -0.00000
H         -3.76900        7.07700       -0.00000
H         -1.84100       10.30700       -0.00000
H          4.51900        6.65600        0.00200
H          3.40200        9.52800       -0.00000
H          2.90300        4.94100        0.00000
H         -1.48100        6.53700       -0.00100
C         -1.87800        5.02200        0.00000
H         -2.34200        4.30800        0.00700
H         -1.87800        5.02200        0.00000
H         -2.55100        4.47000        0.00200
H         -0.81700        4.78100        0.16400
H         -2.73500        5.86400        0.00100
O         -0.56100       12.79000        0.00000
O          2.13700       12.55300        0.00000
H         -0.82400       14.26200       -0.00000
