
 OpenBabel11042013083D

 32 33  0  0  1  0  0  0  0  0999 V2000
    1.4940    0.1730    0.1380 O   0  0  0  0  0  0  0  0  0  0  0  0
    0.2880    0.7330   -0.1080 C   0  0  0  0  0  0  0  0  0  0  0  0
   -0.7080    0.0330   -0.2010 O   0  0  0  0  0  0  0  0  0  0  0  0
    0.2930    2.2230   -0.2370 C   0  0  2  0  0  0  0  0  0  0  0  0
    2.2250    0.7660    0.3740 H   0  0  0  0  0  0  0  0  0  0  0  0
   -0.8820    2.8760   -0.1700 C   0  0  1  0  0  0  0  0  0  0  0  0
   -0.9680    4.2260   -0.2590 C   0  0  1  0  0  0  0  0  0  0  0  0
    0.2000    4.9670   -0.3480 C   0  0  1  0  0  0  0  0  0  0  0  0
    1.3740    4.2890   -0.5380 C   0  0  1  0  0  0  0  0  0  0  0  0
    1.4050    2.9400   -0.4790 C   0  0  0  0  0  0  0  0  0  0  0  0
    0.1010    6.5030   -0.2450 C   0  0  2  0  0  0  0  0  0  0  0  0
   -2.3630    4.8980   -0.3160 C   0  0  0  0  0  0  0  0  0  0  0  0
   -2.0090    2.1510   -0.0140 F   0  0  0  0  0  0  0  0  0  0  0  0
    2.3540    2.4420   -0.6470 H   0  0  0  0  0  0  0  0  0  0  0  0
    3.0440    5.0780   -0.9580 Br  0  0  0  0  0  0  0  0  0  0  0  0
    1.2700    7.4510   -0.0300 C   0  0  0  0  0  0  0  0  0  0  0  0
    0.5520    8.5420    0.5900 N   0  0  0  0  0  0  0  0  0  0  0  0
   -0.5200    8.0760    1.2810 N   0  0  0  0  0  0  0  0  0  0  0  0
   -0.6760    6.8650    0.9860 N   0  0  0  0  0  0  0  0  0  0  0  0
    0.5480    9.8190    0.0970 C   0  0  0  0  0  0  0  0  0  0  0  0
    1.7820    7.7630   -0.9430 H   0  0  0  0  0  0  0  0  0  0  0  0
    1.9790    7.0900    0.7240 H   0  0  0  0  0  0  0  0  0  0  0  0
   -0.4600    6.8570   -1.1240 H   0  0  0  0  0  0  0  0  0  0  0  0
   -3.6340    4.1020   -0.0210 C   0  0  0  0  0  0  0  0  0  0  0  0
   -4.4990    4.7760   -0.0290 H   0  0  0  0  0  0  0  0  0  0  0  0
   -3.5880    3.6430    0.9720 H   0  0  0  0  0  0  0  0  0  0  0  0
   -3.8180    3.3330   -0.7760 H   0  0  0  0  0  0  0  0  0  0  0  0
   -2.4280    5.7300    0.3810 H   0  0  0  0  0  0  0  0  0  0  0  0
   -2.4760    5.3230   -1.3240 H   0  0  0  0  0  0  0  0  0  0  0  0
   -0.4900   10.5680    0.5290 O   0  0  0  0  0  0  0  0  0  0  0  0
    1.3320   10.2840   -0.7160 O   0  0  0  0  0  0  0  0  0  0  0  0
   -0.4100   11.3950    0.0160 H   0  0  0  0  0  0  0  0  0  0  0  0
  1  5  1  0  0  0  0
  2  1  1  0  0  0  0
  3  2  2  0  0  0  0
  4  2  1  6  0  0  0
  4 10  5  0  0  0  0
  6  4  5  0  0  0  0
  6  7  5  0  0  0  0
  6 13  1  6  0  0  0
  7 12  1  6  0  0  0
  8  7  5  0  0  0  0
  8 11  1  6  0  0  0
  9  8  5  0  0  0  0
  9 15  1  6  0  0  0
 10  9  5  0  0  0  0
 10 14  1  0  0  0  0
 11 19  1  0  0  0  0
 11 23  1  6  0  0  0
 12 28  1  0  0  0  0
 12 29  1  0  0  0  0
 16 11  1  0  0  0  0
 16 21  1  0  0  0  0
 16 22  1  0  0  0  0
 17 16  1  0  0  0  0
 18 17  1  0  0  0  0
 19 18  2  0  0  0  0
 20 17  1  0  0  0  0
 20 31  2  0  0  0  0
 24 25  1  0  0  0  0
 24 26  1  0  0  0  0
 24 27  1  0  0  0  0
 24 12  1  0  0  0  0
 30 20  1  0  0  0  0
 32 30  1  0  0  0  0
M  END
