32

O          1.49400        0.17300        0.13800
C          0.28800        0.73300       -0.10800
O         -0.70800        0.03300       -0.20100
C          0.29300        2.22300       -0.23700
H          2.22500        0.76600        0.37400
C         -0.88200        2.87600       -0.17000
C         -0.96800        4.22600       -0.25900
C          0.20000        4.96700       -0.34800
C          1.37400        4.28900       -0.53800
C          1.40500        2.94000       -0.47900
C          0.10100        6.50300       -0.24500
C         -2.36300        4.89800       -0.31600
F         -2.00900        2.15100       -0.01400
H          2.35400        2.44200       -0.64700
Br         3.04400        5.07800       -0.95800
C          1.27000        7.45100       -0.03000
N          0.55200        8.54200        0.59000
N         -0.52000        8.07600        1.28100
N         -0.67600        6.86500        0.98600
C          0.54800        9.81900        0.09700
H          1.78200        7.76300       -0.94300
H          1.97900        7.09000        0.72400
H         -0.46000        6.85700       -1.12400
C         -3.63400        4.10200       -0.02100
H         -4.49900        4.77600       -0.02900
H         -3.58800        3.64300        0.97200
H         -3.81800        3.33300       -0.77600
H         -2.42800        5.73000        0.38100
H         -2.47600        5.32300       -1.32400
O         -0.49000       10.56800        0.52900
O          1.33200       10.28400       -0.71600
H         -0.41000       11.39500        0.01600
