
 OpenBabel11042013083D

 57 60  0  0  1  0  0  0  0  0999 V2000
    1.6280    0.9040    0.5180 O   0  0  0  0  0  0  0  0  0  0  0  0
    0.9650    2.0100    0.9040 C   0  0  0  0  0  0  0  0  0  0  0  0
   -0.1180    1.9790    1.4500 O   0  0  0  0  0  0  0  0  0  0  0  0
    1.6750    3.2990    0.5400 C   0  0  1  0  0  0  0  0  0  0  0  0
    2.3790    1.0830   -0.0700 H   0  0  0  0  0  0  0  0  0  0  0  0
    0.8910    4.3170    0.1660 C   0  0  0  0  0  0  0  0  0  0  0  0
    1.3650    5.5490   -0.1760 C   0  0  1  0  0  0  0  0  0  0  0  0
    2.7540    5.7690   -0.1580 C   0  0  1  0  0  0  0  0  0  0  0  0
    3.5090    4.7060    0.2310 C   0  0  0  0  0  0  0  0  0  0  0  0
    3.0020    3.5040    0.5780 C   0  0  0  0  0  0  0  0  0  0  0  0
    3.5840    7.1160   -0.5690 C   0  0  2  0  0  0  0  0  0  0  0  0
    0.2220    6.5420   -0.5560 C   0  0  0  0  0  0  0  0  0  0  0  0
   -0.1800    4.0920    0.1630 H   0  0  0  0  0  0  0  0  0  0  0  0
    3.6630    2.7020    0.8840 H   0  0  0  0  0  0  0  0  0  0  0  0
    4.5830    4.8140    0.2690 H   0  0  0  0  0  0  0  0  0  0  0  0
   -1.2700    6.0690   -0.4140 C   0  0  0  0  0  0  0  0  0  0  0  0
   -1.9720    6.8770   -0.6520 H   0  0  0  0  0  0  0  0  0  0  0  0
   -1.5110    5.7410    0.6070 H   0  0  0  0  0  0  0  0  0  0  0  0
   -1.5120    5.2410   -1.0960 H   0  0  0  0  0  0  0  0  0  0  0  0
    0.3450    6.8340   -1.6030 H   0  0  0  0  0  0  0  0  0  0  0  0
    0.3070    7.4290    0.0750 H   0  0  0  0  0  0  0  0  0  0  0  0
    5.1360    7.1290   -0.4660 O   0  0  0  0  0  0  0  0  0  0  0  0
    4.3840    9.3090   -0.0500 C   0  0  0  0  0  0  0  0  0  0  0  0
    3.1750    8.4000    0.1400 C   0  0  0  0  0  0  0  0  0  0  0  0
    7.0900    9.2270    0.1490 C   0  0  1  0  0  0  0  0  0  0  0  0
    3.0050    8.2230    1.2080 H   0  0  0  0  0  0  0  0  0  0  0  0
    4.3580   10.1660    0.6280 H   0  0  0  0  0  0  0  0  0  0  0  0
    4.3940    9.6780   -1.0840 H   0  0  0  0  0  0  0  0  0  0  0  0
    2.2620    8.8370   -0.2780 H   0  0  0  0  0  0  0  0  0  0  0  0
    5.5440    8.0970    1.2470 H   0  0  0  0  0  0  0  0  0  0  0  0
    5.5870    8.3850    0.1860 C   0  0  2  0  0  0  0  0  0  0  0  0
    3.4130    7.2290   -1.6480 H   0  0  0  0  0  0  0  0  0  0  0  0
    8.6110    8.8850   -0.1970 C   0  0  0  0  0  0  0  0  0  0  0  0
    9.3490   10.2330    0.2370 C   0  0  2  0  0  0  0  0  0  0  0  0
    8.3540   11.2640   -0.1640 N   0  0  0  0  0  0  0  0  0  0  0  0
    7.0570   10.5910   -0.4570 N   0  0  0  0  0  0  0  0  0  0  0  0
   10.9200   10.7580    0.2530 C   0  0  1  0  0  0  0  0  0  0  0  0
    6.2980   11.1360   -0.0410 H   0  0  0  0  0  0  0  0  0  0  0  0
    8.6880   11.7580   -0.9970 H   0  0  0  0  0  0  0  0  0  0  0  0
    8.7500    8.7040   -1.2700 H   0  0  0  0  0  0  0  0  0  0  0  0
    9.2120   10.1970    1.3310 H   0  0  0  0  0  0  0  0  0  0  0  0
    8.9820    8.0350    0.3810 H   0  0  0  0  0  0  0  0  0  0  0  0
    7.1480    9.4320    1.2320 H   0  0  0  0  0  0  0  0  0  0  0  0
   12.0470   10.2390   -0.5100 O   0  0  0  0  0  0  0  0  0  0  0  0
   12.6130   12.4860    0.0060 C   0  0  0  0  0  0  0  0  0  0  0  0
   11.1090   12.2740    0.0320 C   0  0  0  0  0  0  0  0  0  0  0  0
   14.5940   11.1550   -0.8020 C   0  0  0  0  0  0  0  0  0  0  0  0
   10.7250   12.5760   -0.9490 H   0  0  0  0  0  0  0  0  0  0  0  0
   12.9070   13.1300   -0.8360 H   0  0  0  0  0  0  0  0  0  0  0  0
   12.9850   12.9860    0.9110 H   0  0  0  0  0  0  0  0  0  0  0  0
   10.6360   12.8900    0.8010 H   0  0  0  0  0  0  0  0  0  0  0  0
   13.4600   10.7290    0.8990 H   0  0  0  0  0  0  0  0  0  0  0  0
   13.1910   11.0760   -0.1110 C   0  0  2  0  0  0  0  0  0  0  0  0
   11.2210   10.5690    1.2970 H   0  0  0  0  0  0  0  0  0  0  0  0
   15.3480   12.1820   -0.3130 O   0  0  0  0  0  0  0  0  0  0  0  0
   15.0860   10.3860   -1.6100 O   0  0  0  0  0  0  0  0  0  0  0  0
   16.2230   12.1140   -0.7550 H   0  0  0  0  0  0  0  0  0  0  0  0
  1  5  1  0  0  0  0
  2  1  1  0  0  0  0
  3  2  2  0  0  0  0
  4  2  1  1  0  0  0
  4 10  5  0  0  0  0
  6  4  5  0  0  0  0
  6  7  5  0  0  0  0
  6 13  1  0  0  0  0
  7 12  1  6  0  0  0
  8  7  5  0  0  0  0
  8  9  5  6  0  0  0
  8 11  1  0  0  0  0
  9 15  1  0  0  0  0
 10  9  5  0  0  0  0
 10 14  1  0  0  0  0
 11 24  1  0  0  0  0
 11 32  1  6  0  0  0
 12 20  1  0  0  0  0
 12 21  1  0  0  0  0
 16 17  1  0  0  0  0
 16 18  1  0  0  0  0
 16 19  1  0  0  0  0
 16 12  1  0  0  0  0
 22 11  1  0  0  0  0
 23 31  1  0  0  0  0
 23 28  1  0  0  0  0
 24 23  1  0  0  0  0
 24 29  1  0  0  0  0
 25 31  1  0  0  0  0
 25 36  1  0  0  0  0
 25 43  1  1  0  0  0
 26 24  1  0  0  0  0
 27 23  1  0  0  0  0
 31 22  1  0  0  0  0
 31 30  1  1  0  0  0
 33 25  1  0  0  0  0
 33 40  1  0  0  0  0
 33 42  1  0  0  0  0
 34 33  1  0  0  0  0
 34 41  1  1  0  0  0
 35 34  1  0  0  0  0
 36 35  1  0  0  0  0
 37 34  1  0  0  0  0
 37 46  1  0  0  0  0
 37 54  1  1  0  0  0
 38 36  1  0  0  0  0
 39 35  1  0  0  0  0
 44 37  1  0  0  0  0
 45 53  1  0  0  0  0
 45 50  1  0  0  0  0
 46 45  1  0  0  0  0
 46 51  1  0  0  0  0
 47 53  1  0  0  0  0
 47 56  2  0  0  0  0
 48 46  1  0  0  0  0
 49 45  1  0  0  0  0
 53 44  1  0  0  0  0
 53 52  1  1  0  0  0
 55 47  1  0  0  0  0
 57 55  1  0  0  0  0
M  END
