
 OpenBabel11042013083D

 26 27  0  0  1  0  0  0  0  0999 V2000
    1.1270   -0.2030   -0.1370 O   0  0  0  0  0  0  0  0  0  0  0  0
   -0.0180    0.5020   -0.2390 C   0  0  0  0  0  0  0  0  0  0  0  0
   -1.0540   -0.1420   -0.3080 O   0  0  0  0  0  0  0  0  0  0  0  0
    0.0610    2.0160   -0.1700 C   0  0  1  0  0  0  0  0  0  0  0  0
    1.9530    0.3080   -0.0940 H   0  0  0  0  0  0  0  0  0  0  0  0
   -1.1080    2.7180   -0.1630 C   0  0  2  0  0  0  0  0  0  0  0  0
   -1.0760    4.0600   -0.0130 C   0  0  0  0  0  0  0  0  0  0  0  0
    0.0550    4.7770    0.1700 C   0  0  2  0  0  0  0  0  0  0  0  0
    1.2310    4.0830    0.1470 C   0  0  2  0  0  0  0  0  0  0  0  0
    1.2260    2.7280   -0.0690 C   0  0  2  0  0  0  0  0  0  0  0  0
   -0.1220    6.2860    0.4270 C   0  0  1  0  0  0  0  0  0  0  0  0
   -2.0340    4.5810   -0.0020 H   0  0  0  0  0  0  0  0  0  0  0  0
   -2.8720    2.0270   -0.3400 Br  0  0  0  0  0  0  0  0  0  0  0  0
    2.7950    1.9400   -0.2430 Cl  0  0  0  0  0  0  0  0  0  0  0  0
    2.8770    4.9780    0.5210 Br  0  0  0  0  0  0  0  0  0  0  0  0
    0.8860    7.3290   -0.0110 C   0  0  0  0  0  0  0  0  0  0  0  0
    0.0070    8.4450   -0.2230 N   0  0  0  0  0  0  0  0  0  0  0  0
   -1.2710    8.0520   -0.4460 N   0  0  0  0  0  0  0  0  0  0  0  0
   -1.3590    6.8160   -0.2300 N   0  0  0  0  0  0  0  0  0  0  0  0
    0.3540    9.7580   -0.0740 C   0  0  0  0  0  0  0  0  0  0  0  0
    1.6330    7.5740    0.7500 H   0  0  0  0  0  0  0  0  0  0  0  0
    1.3680    7.1000   -0.9680 H   0  0  0  0  0  0  0  0  0  0  0  0
   -0.2840    6.3940    1.5100 H   0  0  0  0  0  0  0  0  0  0  0  0
   -0.6810   10.6130   -0.1990 O   0  0  0  0  0  0  0  0  0  0  0  0
    1.4670   10.1860    0.1960 O   0  0  0  0  0  0  0  0  0  0  0  0
   -0.2910   11.4890   -0.0140 H   0  0  0  0  0  0  0  0  0  0  0  0
  1  5  1  0  0  0  0
  2  1  1  0  0  0  0
  3  2  2  0  0  0  0
  4  2  1  1  0  0  0
  4 10  5  0  0  0  0
  6  4  5  0  0  0  0
  6  7  5  0  0  0  0
  6 13  1  1  0  0  0
  7 12  1  0  0  0  0
  8  7  5  1  0  0  0
  8 11  1  0  0  0  0
  9  8  5  0  0  0  0
  9 15  1  1  0  0  0
 10  9  5  0  0  0  0
 10 14  1  6  0  0  0
 11 19  1  0  0  0  0
 11 23  1  1  0  0  0
 16 11  1  0  0  0  0
 16 21  1  0  0  0  0
 16 22  1  0  0  0  0
 17 16  1  0  0  0  0
 18 17  1  0  0  0  0
 19 18  2  0  0  0  0
 20 17  1  0  0  0  0
 20 25  2  0  0  0  0
 24 20  1  0  0  0  0
 26 24  1  0  0  0  0
M  END
