26

O          1.12700       -0.20300       -0.13700
C         -0.01800        0.50200       -0.23900
O         -1.05400       -0.14200       -0.30800
C          0.06100        2.01600       -0.17000
H          1.95300        0.30800       -0.09400
C         -1.10800        2.71800       -0.16300
C         -1.07600        4.06000       -0.01300
C          0.05500        4.77700        0.17000
C          1.23100        4.08300        0.14700
C          1.22600        2.72800       -0.06900
C         -0.12200        6.28600        0.42700
H         -2.03400        4.58100       -0.00200
Br        -2.87200        2.02700       -0.34000
Cl         2.79500        1.94000       -0.24300
Br         2.87700        4.97800        0.52100
C          0.88600        7.32900       -0.01100
N          0.00700        8.44500       -0.22300
N         -1.27100        8.05200       -0.44600
N         -1.35900        6.81600       -0.23000
C          0.35400        9.75800       -0.07400
H          1.63300        7.57400        0.75000
H          1.36800        7.10000       -0.96800
H         -0.28400        6.39400        1.51000
O         -0.68100       10.61300       -0.19900
O          1.46700       10.18600        0.19600
H         -0.29100       11.48900       -0.01400
