37

O          1.54000        0.59800       -0.06000
C          0.32800        1.17100        0.12200
O         -0.65600        0.45500        0.22400
C          0.30100        2.68900        0.13000
H          2.26700        1.16500       -0.36000
C         -0.86900        3.37300       -0.00900
C         -0.79900        4.72400       -0.10200
C          0.35000        5.45500       -0.04000
C          1.49100        4.75000        0.18800
C          1.44500        3.39700        0.26700
C          0.22000        6.97500       -0.31700
H         -1.73200        5.25300       -0.26800
C         -2.23000        2.66000       -0.04600
H          2.38500        2.88700        0.44500
Br         3.21100        5.50900        0.34900
C          1.28300        8.05500       -0.05500
C          0.51900        9.30100       -0.48600
N         -0.86700        9.04800       -0.05800
N         -0.92700        7.64300        0.34600
C          0.97900       10.61500       -0.03000
H         -1.81100        7.24100        0.03200
H         -1.09600        9.65600        0.73400
H          1.58100        8.09900        1.00200
H          0.52100        9.33100       -1.58400
H          2.17500        7.93800       -0.67600
H          0.02800        7.00000       -1.40300
C         -3.50800        3.49100        0.07100
H         -3.66000        4.12500       -0.80700
H         -3.49700        4.11700        0.97000
H         -4.37300        2.82200        0.14800
H         -2.27700        1.97200        0.80700
H         -2.29600        2.07300       -0.97000
C          1.15000       11.79000        0.16300
C          1.19600       13.22700        0.24600
O         -0.02000       13.80700        0.19300
O          2.22600       13.87200        0.29800
H          0.17200       14.76600        0.19400
