55

O          1.24400        0.24600       -0.12000
C          0.13000        0.99500       -0.27700
O         -0.96400        0.45300       -0.35600
C          0.33200        2.50900       -0.30600
H          2.07800        0.71500        0.03000
C         -0.81000        3.24900       -0.30600
C         -0.75500        4.60700       -0.26400
C          0.40600        5.33800       -0.22800
C          1.52400        4.56200       -0.27300
C          1.50000        3.19700       -0.32600
C          0.43400        6.96400        0.12000
H         -1.72800        5.08800       -0.20400
H         -1.76800        2.74400       -0.28800
H          2.44300        2.65800       -0.33300
H          2.49800        5.03700       -0.23900
O          1.12400        8.10700       -0.63300
C         -0.74600        9.05600        0.43300
C         -0.95600        7.54700        0.26800
C          0.90600       11.13800       -0.45800
H         -1.51100        7.09800        1.10300
H         -1.00300        9.35000        1.45500
H         -1.44100        9.55600       -0.24900
H         -1.54600        7.35500       -0.64000
H          1.33000        9.36600        1.03900
C          0.74100        9.42000        0.11700
H          0.92100        6.96400        1.10400
C          2.19000       12.25400       -0.28000
C          1.57200       13.79500        0.10800
N          0.14800       13.47400       -0.22400
N         -0.10400       12.02800        0.20400
C          1.95900       15.62300        0.13300
H         -1.04100       11.73500       -0.08500
H         -0.44000       14.10000        0.33900
H          2.76100       12.27100       -1.21400
H          1.62200       13.68400        1.20200
H          2.81100       11.90500        0.55200
H          0.68900       11.07200       -1.53400
C          3.24600       16.61500        0.02400
C          2.76200       18.13200       -0.36600
N          1.30400       17.99700       -0.46100
N          0.83700       16.59100       -0.15500
C          3.35400       19.60400        0.09600
H          0.24800       16.24600       -0.91500
H          0.83800       18.70300        0.10400
H          3.93200       16.28200       -0.76100
H          3.11100       18.21100       -1.40500
H          3.78000       16.66500        0.98300
H          1.89800       15.65900        1.23300
C          2.79100       20.85500        0.08400
C          3.57400       22.17300        0.22100
H          1.73900       21.06500       -0.13900
H          4.43200       19.58000        0.27400
O          2.76900       23.26900        0.13300
O          4.76400       22.30600        0.32300
H          3.37500       24.05500        0.16600
