
 OpenBabel11042013083D

 55 58  0  0  1  0  0  0  0  0999 V2000
    1.2440    0.2460   -0.1200 O   0  0  0  0  0  0  0  0  0  0  0  0
    0.1300    0.9950   -0.2770 C   0  0  0  0  0  0  0  0  0  0  0  0
   -0.9640    0.4530   -0.3560 O   0  0  0  0  0  0  0  0  0  0  0  0
    0.3320    2.5090   -0.3060 C   0  0  1  0  0  0  0  0  0  0  0  0
    2.0780    0.7150    0.0300 H   0  0  0  0  0  0  0  0  0  0  0  0
   -0.8100    3.2490   -0.3060 C   0  0  0  0  0  0  0  0  0  0  0  0
   -0.7550    4.6070   -0.2640 C   0  0  0  0  0  0  0  0  0  0  0  0
    0.4060    5.3380   -0.2280 C   0  0  2  0  0  0  0  0  0  0  0  0
    1.5240    4.5620   -0.2730 C   0  0  0  0  0  0  0  0  0  0  0  0
    1.5000    3.1970   -0.3260 C   0  0  0  0  0  0  0  0  0  0  0  0
    0.4340    6.9640    0.1200 C   0  0  1  0  0  0  0  0  0  0  0  0
   -1.7280    5.0880   -0.2040 H   0  0  0  0  0  0  0  0  0  0  0  0
   -1.7680    2.7440   -0.2880 H   0  0  0  0  0  0  0  0  0  0  0  0
    2.4430    2.6580   -0.3330 H   0  0  0  0  0  0  0  0  0  0  0  0
    2.4980    5.0370   -0.2390 H   0  0  0  0  0  0  0  0  0  0  0  0
    1.1240    8.1070   -0.6330 O   0  0  0  0  0  0  0  0  0  0  0  0
   -0.7460    9.0560    0.4330 C   0  0  0  0  0  0  0  0  0  0  0  0
   -0.9560    7.5470    0.2680 C   0  0  0  0  0  0  0  0  0  0  0  0
    0.9060   11.1380   -0.4580 C   0  0  2  0  0  0  0  0  0  0  0  0
   -1.5110    7.0980    1.1030 H   0  0  0  0  0  0  0  0  0  0  0  0
   -1.0030    9.3500    1.4550 H   0  0  0  0  0  0  0  0  0  0  0  0
   -1.4410    9.5560   -0.2490 H   0  0  0  0  0  0  0  0  0  0  0  0
   -1.5460    7.3550   -0.6400 H   0  0  0  0  0  0  0  0  0  0  0  0
    1.3300    9.3660    1.0390 H   0  0  0  0  0  0  0  0  0  0  0  0
    0.7410    9.4200    0.1170 C   0  0  2  0  0  0  0  0  0  0  0  0
    0.9210    6.9640    1.1040 H   0  0  0  0  0  0  0  0  0  0  0  0
    2.1900   12.2540   -0.2800 C   0  0  0  0  0  0  0  0  0  0  0  0
    1.5720   13.7950    0.1080 C   0  0  2  0  0  0  0  0  0  0  0  0
    0.1480   13.4740   -0.2240 N   0  0  0  0  0  0  0  0  0  0  0  0
   -0.1040   12.0280    0.2040 N   0  0  0  0  0  0  0  0  0  0  0  0
    1.9590   15.6230    0.1330 C   0  0  1  0  0  0  0  0  0  0  0  0
   -1.0410   11.7350   -0.0850 H   0  0  0  0  0  0  0  0  0  0  0  0
   -0.4400   14.1000    0.3390 H   0  0  0  0  0  0  0  0  0  0  0  0
    2.7610   12.2710   -1.2140 H   0  0  0  0  0  0  0  0  0  0  0  0
    1.6220   13.6840    1.2020 H   0  0  0  0  0  0  0  0  0  0  0  0
    2.8110   11.9050    0.5520 H   0  0  0  0  0  0  0  0  0  0  0  0
    0.6890   11.0720   -1.5340 H   0  0  0  0  0  0  0  0  0  0  0  0
    3.2460   16.6150    0.0240 C   0  0  0  0  0  0  0  0  0  0  0  0
    2.7620   18.1320   -0.3660 C   0  0  1  0  0  0  0  0  0  0  0  0
    1.3040   17.9970   -0.4610 N   0  0  0  0  0  0  0  0  0  0  0  0
    0.8370   16.5910   -0.1550 N   0  0  0  0  0  0  0  0  0  0  0  0
    3.3540   19.6040    0.0960 C   0  0  0  0  0  0  0  0  0  0  0  0
    0.2480   16.2460   -0.9150 H   0  0  0  0  0  0  0  0  0  0  0  0
    0.8380   18.7030    0.1040 H   0  0  0  0  0  0  0  0  0  0  0  0
    3.9320   16.2820   -0.7610 H   0  0  0  0  0  0  0  0  0  0  0  0
    3.1110   18.2110   -1.4050 H   0  0  0  0  0  0  0  0  0  0  0  0
    3.7800   16.6650    0.9830 H   0  0  0  0  0  0  0  0  0  0  0  0
    1.8980   15.6590    1.2330 H   0  0  0  0  0  0  0  0  0  0  0  0
    2.7910   20.8550    0.0840 C   0  0  0  0  0  0  0  0  0  0  0  0
    3.5740   22.1730    0.2210 C   0  0  0  0  0  0  0  0  0  0  0  0
    1.7390   21.0650   -0.1390 H   0  0  0  0  0  0  0  0  0  0  0  0
    4.4320   19.5800    0.2740 H   0  0  0  0  0  0  0  0  0  0  0  0
    2.7690   23.2690    0.1330 O   0  0  0  0  0  0  0  0  0  0  0  0
    4.7640   22.3060    0.3230 O   0  0  0  0  0  0  0  0  0  0  0  0
    3.3750   24.0550    0.1660 H   0  0  0  0  0  0  0  0  0  0  0  0
  1  5  1  0  0  0  0
  2  1  1  0  0  0  0
  3  2  2  0  0  0  0
  4  2  1  1  0  0  0
  4 10  5  0  0  0  0
  6  4  5  0  0  0  0
  6  7  5  0  0  0  0
  6 13  1  0  0  0  0
  7 12  1  0  0  0  0
  8  7  5  1  0  0  0
  8 11  1  0  0  0  0
  9  8  5  0  0  0  0
  9 15  1  0  0  0  0
 10  9  5  0  0  0  0
 10 14  1  0  0  0  0
 11 18  1  0  0  0  0
 11 26  1  1  0  0  0
 16 11  1  0  0  0  0
 17 25  1  0  0  0  0
 17 22  1  0  0  0  0
 18 17  1  0  0  0  0
 18 23  1  0  0  0  0
 19 25  1  0  0  0  0
 19 30  1  0  0  0  0
 19 37  1  6  0  0  0
 20 18  1  0  0  0  0
 21 17  1  0  0  0  0
 25 16  1  0  0  0  0
 25 24  1  1  0  0  0
 27 19  1  0  0  0  0
 27 34  1  0  0  0  0
 27 36  1  0  0  0  0
 28 27  1  0  0  0  0
 28 35  1  1  0  0  0
 29 28  1  0  0  0  0
 30 29  1  0  0  0  0
 31 28  1  0  0  0  0
 31 41  1  0  0  0  0
 31 48  1  1  0  0  0
 32 30  1  0  0  0  0
 33 29  1  0  0  0  0
 38 31  1  0  0  0  0
 38 45  1  0  0  0  0
 38 47  1  0  0  0  0
 39 38  1  0  0  0  0
 39 46  1  6  0  0  0
 40 39  1  0  0  0  0
 41 40  1  0  0  0  0
 42 39  1  0  0  0  0
 42 52  1  0  0  0  0
 43 41  1  0  0  0  0
 44 40  1  0  0  0  0
 49 42  2  0  0  0  0
 49 51  1  0  0  0  0
 50 49  1  0  0  0  0
 50 54  2  0  0  0  0
 53 50  1  0  0  0  0
 55 53  1  0  0  0  0
M  END
