27

O          0.80900        0.55400       -0.10700
C         -0.40800        1.10200        0.10800
O         -1.40100        0.39900        0.20900
C         -0.45000        2.59600        0.13500
H          1.57200        1.16500       -0.07100
C         -1.57700        3.28300       -0.18600
C         -1.54000        4.64000       -0.20000
C         -0.41800        5.32700        0.11900
C          0.69200        4.62700        0.48600
C          0.65100        3.28300        0.49000
C         -0.32000        6.77500       -0.03600
H         -2.43700        5.18700       -0.49500
C         -2.81600        2.65300       -0.54700
F          1.77800        2.61500        0.84100
C          2.74800        5.66700       -0.07700
C         -1.20200        7.75600        0.20100
C         -0.72500        9.12400       -0.07300
H         -2.20200        7.61600        0.58700
H          0.64400        7.09000       -0.43000
N         -3.85300        2.22900       -0.85000
H          2.80400        6.76100       -0.07300
H          3.74000        5.28200        0.16900
H          2.46100        5.32000       -1.07500
O          1.84200        5.25700        0.94600
O         -1.67000       10.03200        0.19200
O          0.37600        9.45000       -0.48000
H         -1.22500       10.88000       -0.02100
