
 OpenBabel11042013083D

 29 30  0  0  1  0  0  0  0  0999 V2000
    1.0020    0.1330   -0.6150 O   0  0  0  0  0  0  0  0  0  0  0  0
   -0.1400    0.6020   -0.0650 C   0  0  0  0  0  0  0  0  0  0  0  0
   -0.9810   -0.1660    0.3680 O   0  0  0  0  0  0  0  0  0  0  0  0
   -0.2220    2.0810   -0.0560 C   0  0  1  0  0  0  0  0  0  0  0  0
    0.9330   -0.8390   -0.4940 H   0  0  0  0  0  0  0  0  0  0  0  0
   -1.4020    2.6940   -0.3450 C   0  0  2  0  0  0  0  0  0  0  0  0
   -1.4870    4.0440   -0.2630 C   0  0  0  0  0  0  0  0  0  0  0  0
   -0.4290    4.8060    0.1080 C   0  0  2  0  0  0  0  0  0  0  0  0
    0.7320    4.1740    0.3710 C   0  0  2  0  0  0  0  0  0  0  0  0
    0.8490    2.8310    0.3040 C   0  0  1  0  0  0  0  0  0  0  0  0
   -0.5290    6.3070    0.3140 C   0  0  1  0  0  0  0  0  0  0  0  0
   -2.4450    4.5240   -0.4720 H   0  0  0  0  0  0  0  0  0  0  0  0
   -2.5820    1.9690   -0.7200 C   0  0  0  0  0  0  0  0  0  0  0  0
    2.1050    2.2600    0.6760 N   0  0  0  0  0  0  0  0  0  0  0  0
    1.8080    4.9030    0.7500 F   0  0  0  0  0  0  0  0  0  0  0  0
   -3.5620    1.4350   -1.0350 N   0  0  0  0  0  0  0  0  0  0  0  0
    0.6100    7.2110   -0.1120 C   0  0  0  0  0  0  0  0  0  0  0  0
   -0.1430    8.4170   -0.3420 N   0  0  0  0  0  0  0  0  0  0  0  0
   -1.4550    8.1550   -0.6020 N   0  0  0  0  0  0  0  0  0  0  0  0
   -1.6780    6.9310   -0.3960 N   0  0  0  0  0  0  0  0  0  0  0  0
    0.3290    9.6870   -0.1640 C   0  0  0  0  0  0  0  0  0  0  0  0
    1.3790    7.3540    0.6530 H   0  0  0  0  0  0  0  0  0  0  0  0
    1.0750    6.9150   -1.0590 H   0  0  0  0  0  0  0  0  0  0  0  0
   -0.7090    6.4620    1.3880 H   0  0  0  0  0  0  0  0  0  0  0  0
    2.8950    2.8940    0.7280 H   0  0  0  0  0  0  0  0  0  0  0  0
    2.3350    1.3720    0.2260 H   0  0  0  0  0  0  0  0  0  0  0  0
   -0.6120   10.6440   -0.2960 O   0  0  0  0  0  0  0  0  0  0  0  0
    1.4740   10.0000    0.1320 O   0  0  0  0  0  0  0  0  0  0  0  0
   -0.1380   11.4750   -0.0940 H   0  0  0  0  0  0  0  0  0  0  0  0
  1  5  1  0  0  0  0
  2  1  1  0  0  0  0
  3  2  2  0  0  0  0
  4  2  1  1  0  0  0
  4 10  5  0  0  0  0
  6  4  5  0  0  0  0
  6  7  5  0  0  0  0
  6 13  1  1  0  0  0
  7 12  1  0  0  0  0
  8  7  5  1  0  0  0
  8 11  1  0  0  0  0
  9  8  5  0  0  0  0
  9 15  1  1  0  0  0
 10  9  5  0  0  0  0
 10 14  1  1  0  0  0
 11 20  1  0  0  0  0
 11 24  1  1  0  0  0
 13 16  3  0  0  0  0
 14 25  1  0  0  0  0
 14 26  1  0  0  0  0
 17 11  1  0  0  0  0
 17 22  1  0  0  0  0
 17 23  1  0  0  0  0
 18 17  1  0  0  0  0
 19 18  1  0  0  0  0
 20 19  2  0  0  0  0
 21 18  1  0  0  0  0
 21 28  2  0  0  0  0
 27 21  1  0  0  0  0
 29 27  1  0  0  0  0
M  END
