40

O          1.70600       -0.76600        0.18700
C          0.46300       -0.23400        0.17300
O         -0.51800       -0.94000        0.35000
C          0.39300        1.24700       -0.03900
H          2.44500       -0.13800        0.17000
C         -0.82000        1.80600        0.11000
C         -0.99300        3.13100        0.00400
C          0.05800        3.97600       -0.23600
C          1.26900        3.38900       -0.47600
C          1.42200        2.05100       -0.36500
C         -0.16000        5.50100       -0.15700
N         -2.34800        3.58000        0.15800
H         -1.68600        1.17900        0.34100
H          2.41600        1.66300       -0.56200
O          2.40300        4.09500       -0.83700
C          0.97800        6.47000        0.14400
N          0.36500        7.38000        1.09800
N         -0.75000        6.80600        1.63700
N         -1.06100        5.78000        0.99800
C          0.18700        8.79900        0.84600
H          1.34900        6.99300       -0.74200
H          1.81200        5.99800        0.67000
H         -0.66500        5.82200       -1.08000
O          1.32700        9.40900        0.23600
C         -0.68400       10.51100       -0.46000
C         -0.96300        9.08200       -0.10200
C          1.40400       11.90200        0.03100
H         -1.94500        8.93200        0.35400
H         -1.11600       11.15400        0.31600
H         -1.12600       10.80500       -1.41600
H         -0.89900        8.45500       -0.99900
H          1.19500       10.46400       -1.51600
C          0.84400       10.56900       -0.48300
H          0.02600        9.28300        1.81900
H         -2.64400        4.07300       -0.68600
H         -2.35700        4.35400        0.83300
H          2.22300        4.90300       -1.34200
O          0.48700       12.89100        0.11600
O          2.56900       12.14100        0.31300
H          0.98500       13.66100        0.46300
