
 OpenBabel11042013083D

 53 56  0  0  1  0  0  0  0  0999 V2000
    1.2350    0.6910   -0.0000 O   0  0  0  0  0  0  0  0  0  0  0  0
   -0.0230    1.4590    0.0000 C   0  0  0  0  0  0  0  0  0  0  0  0
   -1.1640    0.7330   -0.0000 O   0  0  0  0  0  0  0  0  0  0  0  0
   -0.0010    2.7320    0.0000 C   0  0  1  0  0  0  0  0  0  0  0  0
    2.4530    0.4370    0.0000 H   0  0  0  0  0  0  0  0  0  0  0  0
   -1.0890    3.2080   -0.0000 C   0  0  0  0  0  0  0  0  0  0  0  0
   -1.0990    4.3720   -0.0000 C   0  0  0  0  0  0  0  0  0  0  0  0
   -0.0870    4.9630   -0.0000 C   0  0  1  0  0  0  0  0  0  0  0  0
    0.9620    4.3070   -0.0000 C   0  0  0  0  0  0  0  0  0  0  0  0
    1.0940    3.2150   -0.0000 C   0  0  0  0  0  0  0  0  0  0  0  0
    0.1240    5.9830    0.0000 C   0  0  1  0  0  0  0  0  0  0  0  0
   -1.9490    4.8890    0.0000 H   0  0  0  0  0  0  0  0  0  0  0  0
   -1.8360    2.6540    0.0000 H   0  0  0  0  0  0  0  0  0  0  0  0
    2.0610    2.7830    0.0000 H   0  0  0  0  0  0  0  0  0  0  0  0
    2.0670    4.7640    0.0000 H   0  0  0  0  0  0  0  0  0  0  0  0
   -0.8580    6.3180    0.0000 C   0  0  0  0  0  0  0  0  0  0  0  0
   -1.7350    6.9830    0.0000 C   0  0  0  0  0  0  0  0  0  0  0  0
   -0.5750    7.4950    0.0000 C   0  0  2  0  0  0  0  0  0  0  0  0
    1.3370    6.6680    0.0010 C   0  0  1  0  0  0  0  0  0  0  0  0
    1.0890    6.0320   -0.0000 C   0  0  0  0  0  0  0  0  0  0  0  0
   -0.2690    8.6570   -0.0000 C   0  0  1  0  0  0  0  0  0  0  0  0
   -1.8100    7.7550   -0.0000 H   0  0  0  0  0  0  0  0  0  0  0  0
   -1.6310    6.0160   -0.0000 H   0  0  0  0  0  0  0  0  0  0  0  0
    1.8080    5.8420    0.0000 H   0  0  0  0  0  0  0  0  0  0  0  0
    1.4200    7.9490    0.0000 C   0  0  0  0  0  0  0  0  0  0  0  0
    0.5690    9.4490    0.0000 C   0  0  0  0  0  0  0  0  0  0  0  0
    0.1800   10.0770   -0.0000 N   0  0  0  0  0  0  0  0  0  0  0  0
   -0.5820    9.8040   -0.0000 N   0  0  0  0  0  0  0  0  0  0  0  0
   -1.2710    9.1280   -0.0000 N   0  0  0  0  0  0  0  0  0  0  0  0
    0.2200   10.9710    0.0000 C   0  0  1  0  0  0  0  0  0  0  0  0
    1.2820    9.6860    0.0000 H   0  0  0  0  0  0  0  0  0  0  0  0
    0.1810    8.6750    0.0000 H   0  0  0  0  0  0  0  0  0  0  0  0
   -1.0020    8.4620   -0.0000 H   0  0  0  0  0  0  0  0  0  0  0  0
    2.1970   11.1310    0.0000 C   0  0  0  0  0  0  0  0  0  0  0  0
    1.3880   12.7710    0.0000 C   0  0  2  0  0  0  0  0  0  0  0  0
   -0.8390   12.9370   -0.0000 N   0  0  0  0  0  0  0  0  0  0  0  0
   -1.4080   11.4730    0.0000 N   0  0  0  0  0  0  0  0  0  0  0  0
    0.8440   14.1930   -0.0000 C   0  0  0  0  0  0  0  0  0  0  0  0
   -2.7030   10.9520    0.0000 H   0  0  0  0  0  0  0  0  0  0  0  0
   -2.2620   13.8180    0.0000 H   0  0  0  0  0  0  0  0  0  0  0  0
    3.8490   10.7950    0.0000 H   0  0  0  0  0  0  0  0  0  0  0  0
    3.2430   12.8010   -0.0000 H   0  0  0  0  0  0  0  0  0  0  0  0
    2.3910    9.5760    0.0000 H   0  0  0  0  0  0  0  0  0  0  0  0
   -1.4140   10.6710    0.0000 H   0  0  0  0  0  0  0  0  0  0  0  0
    1.4200    7.9500    0.0000 C   0  0  0  0  0  0  0  0  0  0  0  0
    1.4690    8.5740   -0.0020 H   0  0  0  0  0  0  0  0  0  0  0  0
    1.4200    7.9510    0.0000 H   0  0  0  0  0  0  0  0  0  0  0  0
    1.2130    8.4740    0.0020 H   0  0  0  0  0  0  0  0  0  0  0  0
    0.6870    7.2730   -0.0010 H   0  0  0  0  0  0  0  0  0  0  0  0
    2.6120    8.1990    0.0000 H   0  0  0  0  0  0  0  0  0  0  0  0
   -0.6850   15.3450   -0.0000 O   0  0  0  0  0  0  0  0  0  0  0  0
    2.0710   15.0840   -0.0000 O   0  0  0  0  0  0  0  0  0  0  0  0
   -0.9030   16.7870    0.0000 H   0  0  0  0  0  0  0  0  0  0  0  0
  1  5  1  0  0  0  0
  2  1  1  0  0  0  0
  3  2  2  0  0  0  0
  4  2  1  1  0  0  0
  4 10  5  0  0  0  0
  6  4  5  0  0  0  0
  6  7  5  0  0  0  0
  6 13  1  0  0  0  0
  7 12  1  0  0  0  0
  8  7  5  6  0  0  0
  8 11  1  0  0  0  0
  9  8  5  0  0  0  0
  9 15  1  0  0  0  0
 10  9  5  0  0  0  0
 10 14  1  0  0  0  0
 11 16  5  1  0  0  0
 11 20  5  0  0  0  0
 16 17  5  0  0  0  0
 16 23  1  0  0  0  0
 17 22  1  0  0  0  0
 18 17  5  1  0  0  0
 18 21  1  0  0  0  0
 19 18  5  0  0  0  0
 19 25  1  6  0  0  0
 20 19  5  0  0  0  0
 20 24  1  0  0  0  0
 21 29  1  0  0  0  0
 21 33  1  1  0  0  0
 25 49  1  0  0  0  0
 25 50  1  0  0  0  0
 26 21  1  0  0  0  0
 26 31  1  0  0  0  0
 26 32  1  0  0  0  0
 27 26  1  0  0  0  0
 28 27  1  0  0  0  0
 29 28  2  0  0  0  0
 30 27  1  0  0  0  0
 30 37  1  0  0  0  0
 30 44  1  1  0  0  0
 34 30  1  0  0  0  0
 34 41  1  0  0  0  0
 34 43  1  0  0  0  0
 35 34  1  0  0  0  0
 35 42  1  1  0  0  0
 36 35  1  0  0  0  0
 37 36  1  0  0  0  0
 38 35  1  0  0  0  0
 38 52  2  0  0  0  0
 39 37  1  0  0  0  0
 40 36  1  0  0  0  0
 45 46  1  0  0  0  0
 45 47  1  0  0  0  0
 45 48  1  0  0  0  0
 45 25  1  0  0  0  0
 51 38  1  0  0  0  0
 53 51  1  0  0  0  0
M  END
