
 OpenBabel02032115573D

 23 23  0  0  1  0  0  0  0  0999 V2000
    1.4480    0.4680   -0.4040 O   0  0  0  0  0  0  0  0  0  0  0  0
    0.2830    1.2770   -0.6870 C   0  0  0  0  0  0  0  0  0  0  0  0
   -0.4580    0.4110   -1.0900 O   0  0  0  0  0  0  0  0  0  0  0  0
   -0.5670    2.5960   -0.8390 C   0  0  1  0  0  0  0  0  0  0  0  0
    2.5030    0.4170    0.0000 H   0  0  0  0  0  0  0  0  0  0  0  0
   -1.9290    2.8580   -0.9370 C   0  0  2  0  0  0  0  0  0  0  0  0
   -2.5220    4.1400   -0.9100 C   0  0  2  0  0  0  0  0  0  0  0  0
   -1.7900    5.3080   -0.7630 C   0  0  2  0  0  0  0  0  0  0  0  0
   -0.5080    4.9970   -0.7140 C   0  0  2  0  0  0  0  0  0  0  0  0
    0.0460    3.7730   -0.7920 C   0  0  1  0  0  0  0  0  0  0  0  0
   -2.1720    6.7720   -0.5600 C   0  0  0  0  0  0  0  0  0  0  0  0
   -4.0570    4.1930   -0.9080 C   0  0  0  0  0  0  0  0  0  0  0  0
   -3.1490    1.3880   -0.9940 Br  0  0  0  0  0  0  0  0  0  0  0  0
    1.2600    3.5860   -0.4370 O   0  0  0  0  0  0  0  0  0  0  0  0
    0.3630    5.7670   -0.2160 O   0  0  0  0  0  0  0  0  0  0  0  0
    0.5990    4.7980    0.0000 H   0  0  0  0  0  0  0  0  0  0  0  0
   -4.4620    3.7930   -1.8400 H   0  0  0  0  0  0  0  0  0  0  0  0
   -4.4610    3.6140   -0.0740 H   0  0  0  0  0  0  0  0  0  0  0  0
   -4.4990    5.1720   -0.7800 H   0  0  0  0  0  0  0  0  0  0  0  0
    0.6530    2.9630    0.0000 H   0  0  0  0  0  0  0  0  0  0  0  0
   -1.4790    7.8840   -0.0970 O   0  0  0  0  0  0  0  0  0  0  0  0
   -3.2780    7.0710   -0.9530 O   0  0  0  0  0  0  0  0  0  0  0  0
   -1.8230    8.9020    0.0000 H   0  0  0  0  0  0  0  0  0  0  0  0
  1  5  1  0  0  0  0
  2  1  1  0  0  0  0
  3  2  2  0  0  0  0
  4  2  1  1  0  0  0
  4 10  5  0  0  0  0
  6  4  5  0  0  0  0
  6  7  5  0  0  0  0
  6 13  1  1  0  0  0
  7 12  1  1  0  0  0
  8  7  5  0  0  0  0
  8 11  1  1  0  0  0
  9  8  5  0  0  0  0
  9 15  1  1  0  0  0
 10  9  5  0  0  0  0
 10 14  1  1  0  0  0
 11 22  2  0  0  0  0
 12 17  1  0  0  0  0
 12 18  1  0  0  0  0
 12 19  1  0  0  0  0
 14 20  1  0  0  0  0
 15 16  1  0  0  0  0
 21 11  1  0  0  0  0
 23 21  1  0  0  0  0
M  END
