
 OpenBabel11042013083D

 26 26  0  0  1  0  0  0  0  0999 V2000
    1.4000    0.1560   -0.0000 O   0  0  0  0  0  0  0  0  0  0  0  0
    0.2210    0.8040    0.0000 C   0  0  0  0  0  0  0  0  0  0  0  0
   -0.8370    0.1910   -0.0000 O   0  0  0  0  0  0  0  0  0  0  0  0
    0.2870    2.2960    0.0000 C   0  0  1  0  0  0  0  0  0  0  0  0
    2.2040    0.6970    0.0000 H   0  0  0  0  0  0  0  0  0  0  0  0
   -0.9130    2.9150    0.0000 C   0  0  0  0  0  0  0  0  0  0  0  0
   -1.0380    4.2620    0.0000 C   0  0  1  0  0  0  0  0  0  0  0  0
    0.0880    5.0250    0.0000 C   0  0  1  0  0  0  0  0  0  0  0  0
    1.2870    4.3840    0.0000 C   0  0  0  0  0  0  0  0  0  0  0  0
    1.4000    3.0500    0.0000 C   0  0  0  0  0  0  0  0  0  0  0  0
    0.2730    6.4680   -0.0000 C   0  0  0  0  0  0  0  0  0  0  0  0
   -2.8150    4.9070   -0.0000 Br  0  0  0  0  0  0  0  0  0  0  0  0
   -1.8170    2.3020   -0.0000 H   0  0  0  0  0  0  0  0  0  0  0  0
    2.4080    2.6540    0.0000 H   0  0  0  0  0  0  0  0  0  0  0  0
    2.2170    4.9520    0.0000 H   0  0  0  0  0  0  0  0  0  0  0  0
   -0.5110    7.5340    0.0000 C   0  0  0  0  0  0  0  0  0  0  0  0
    0.0590    8.7840   -0.0000 N   0  0  0  0  0  0  0  0  0  0  0  0
   -1.6020    7.4970   -0.0000 H   0  0  0  0  0  0  0  0  0  0  0  0
    1.3220    6.7640    0.0000 H   0  0  0  0  0  0  0  0  0  0  0  0
   -0.7920    9.6810   -0.0000 N   0  0  0  0  0  0  0  0  0  0  0  0
   -0.2600   10.8940    0.0000 C   0  0  0  0  0  0  0  0  0  0  0  0
   -0.0310   12.0730    0.0000 C   0  0  0  0  0  0  0  0  0  0  0  0
   -0.0120   13.5070    0.0000 C   0  0  0  0  0  0  0  0  0  0  0  0
   -1.2430   14.0600    0.0000 O   0  0  0  0  0  0  0  0  0  0  0  0
    1.0070   14.1740    0.0000 O   0  0  0  0  0  0  0  0  0  0  0  0
   -1.1090   15.0300   -0.0000 H   0  0  0  0  0  0  0  0  0  0  0  0
  1  5  1  0  0  0  0
  2  1  1  0  0  0  0
  3  2  2  0  0  0  0
  4  2  1  1  0  0  0
  4 10  5  0  0  0  0
  6  4  5  0  0  0  0
  6  7  5  0  0  0  0
  6 13  1  0  0  0  0
  7 12  1  6  0  0  0
  8  7  5  0  0  0  0
  8 11  1  6  0  0  0
  9  8  5  0  0  0  0
  9 15  1  0  0  0  0
 10  9  5  0  0  0  0
 10 14  1  0  0  0  0
 11 19  1  0  0  0  0
 16 11  2  0  0  0  0
 16 18  1  0  0  0  0
 17 16  1  0  0  0  0
 20 17  2  0  0  0  0
 21 20  1  0  0  0  0
 22 21  3  0  0  0  0
 23 22  1  0  0  0  0
 23 25  2  0  0  0  0
 24 23  1  0  0  0  0
 26 24  1  0  0  0  0
M  END
