38

O          1.79000        0.77400       -0.09500
C          0.59900        1.32100        0.21100
O         -0.34300        0.61800        0.55500
C          0.51400        2.82000        0.09500
H          2.43500        1.35400       -0.53700
C         -0.66500        3.43600       -0.14400
C         -0.77900        4.80400       -0.08500
C          0.36600        5.59000        0.06300
C          1.55200        4.92600        0.23400
C          1.60200        3.57200        0.30500
C          0.27600        7.19200       -0.01200
C         -2.15700        5.49200       -0.15300
N         -1.80500        2.63200       -0.49200
H          2.55700        3.10000        0.52800
C          2.83700        5.53900        0.34400
C          1.50300        8.11900        0.13900
C          1.01700        9.42200        0.76000
N         -0.40000        9.20500        1.06000
N         -0.63300        7.78800        0.98900
C          1.20800       10.67300       -0.09600
H         -1.60200        7.65400        0.70400
H         -0.95700        9.75600        0.39000
H          2.00600        8.26900       -0.82300
H          1.54000        9.61700        1.70500
H          2.21900        7.73200        0.86200
H         -0.12600        7.40700       -1.01500
H         -2.45600        2.58200        0.29100
H         -1.58100        1.64200       -0.64300
C         -3.52200        4.80600       -0.23700
H         -3.67500        4.30000       -1.19200
H         -4.30900        5.56300       -0.13700
H         -3.67600        4.11300        0.59600
H         -2.13800        6.24600       -0.94900
H         -2.25500        5.97800        0.82200
N          3.92300        5.93600        0.40400
O          0.07500       11.40000       -0.25800
O          2.25700       11.07000       -0.57700
H          0.37600       12.23000       -0.68600
