
 OpenBabel11042013083D

 38 39  0  0  1  0  0  0  0  0999 V2000
    1.7900    0.7740   -0.0950 O   0  0  0  0  0  0  0  0  0  0  0  0
    0.5990    1.3210    0.2110 C   0  0  0  0  0  0  0  0  0  0  0  0
   -0.3430    0.6180    0.5550 O   0  0  0  0  0  0  0  0  0  0  0  0
    0.5140    2.8200    0.0950 C   0  0  1  0  0  0  0  0  0  0  0  0
    2.4350    1.3540   -0.5370 H   0  0  0  0  0  0  0  0  0  0  0  0
   -0.6650    3.4360   -0.1440 C   0  0  1  0  0  0  0  0  0  0  0  0
   -0.7790    4.8040   -0.0850 C   0  0  2  0  0  0  0  0  0  0  0  0
    0.3660    5.5900    0.0630 C   0  0  1  0  0  0  0  0  0  0  0  0
    1.5520    4.9260    0.2340 C   0  0  1  0  0  0  0  0  0  0  0  0
    1.6020    3.5720    0.3050 C   0  0  0  0  0  0  0  0  0  0  0  0
    0.2760    7.1920   -0.0120 C   0  0  2  0  0  0  0  0  0  0  0  0
   -2.1570    5.4920   -0.1530 C   0  0  0  0  0  0  0  0  0  0  0  0
   -1.8050    2.6320   -0.4920 N   0  0  0  0  0  0  0  0  0  0  0  0
    2.5570    3.1000    0.5280 H   0  0  0  0  0  0  0  0  0  0  0  0
    2.8370    5.5390    0.3440 C   0  0  0  0  0  0  0  0  0  0  0  0
    1.5030    8.1190    0.1390 C   0  0  0  0  0  0  0  0  0  0  0  0
    1.0170    9.4220    0.7600 C   0  0  2  0  0  0  0  0  0  0  0  0
   -0.4000    9.2050    1.0600 N   0  0  0  0  0  0  0  0  0  0  0  0
   -0.6330    7.7880    0.9890 N   0  0  0  0  0  0  0  0  0  0  0  0
    1.2080   10.6730   -0.0960 C   0  0  0  0  0  0  0  0  0  0  0  0
   -1.6020    7.6540    0.7040 H   0  0  0  0  0  0  0  0  0  0  0  0
   -0.9570    9.7560    0.3900 H   0  0  0  0  0  0  0  0  0  0  0  0
    2.0060    8.2690   -0.8230 H   0  0  0  0  0  0  0  0  0  0  0  0
    1.5400    9.6170    1.7050 H   0  0  0  0  0  0  0  0  0  0  0  0
    2.2190    7.7320    0.8620 H   0  0  0  0  0  0  0  0  0  0  0  0
   -0.1260    7.4070   -1.0150 H   0  0  0  0  0  0  0  0  0  0  0  0
   -2.4560    2.5820    0.2910 H   0  0  0  0  0  0  0  0  0  0  0  0
   -1.5810    1.6420   -0.6430 H   0  0  0  0  0  0  0  0  0  0  0  0
   -3.5220    4.8060   -0.2370 C   0  0  0  0  0  0  0  0  0  0  0  0
   -3.6750    4.3000   -1.1920 H   0  0  0  0  0  0  0  0  0  0  0  0
   -4.3090    5.5630   -0.1370 H   0  0  0  0  0  0  0  0  0  0  0  0
   -3.6760    4.1130    0.5960 H   0  0  0  0  0  0  0  0  0  0  0  0
   -2.1380    6.2460   -0.9490 H   0  0  0  0  0  0  0  0  0  0  0  0
   -2.2550    5.9780    0.8220 H   0  0  0  0  0  0  0  0  0  0  0  0
    3.9230    5.9360    0.4040 N   0  0  0  0  0  0  0  0  0  0  0  0
    0.0750   11.4000   -0.2580 O   0  0  0  0  0  0  0  0  0  0  0  0
    2.2570   11.0700   -0.5770 O   0  0  0  0  0  0  0  0  0  0  0  0
    0.3760   12.2300   -0.6860 H   0  0  0  0  0  0  0  0  0  0  0  0
  1  5  1  0  0  0  0
  2  1  1  0  0  0  0
  3  2  2  0  0  0  0
  4  2  1  1  0  0  0
  4 10  5  0  0  0  0
  6  4  5  0  0  0  0
  6  7  5  0  0  0  0
  6 13  1  6  0  0  0
  7 12  1  1  0  0  0
  8  7  5  0  0  0  0
  8 11  1  6  0  0  0
  9  8  5  0  0  0  0
  9 15  1  6  0  0  0
 10  9  5  0  0  0  0
 10 14  1  0  0  0  0
 11 19  1  0  0  0  0
 11 26  1  6  0  0  0
 12 33  1  0  0  0  0
 12 34  1  0  0  0  0
 13 27  1  0  0  0  0
 13 28  1  0  0  0  0
 15 35  3  0  0  0  0
 16 11  1  0  0  0  0
 16 23  1  0  0  0  0
 16 25  1  0  0  0  0
 17 16  1  0  0  0  0
 17 24  1  1  0  0  0
 18 17  1  0  0  0  0
 19 18  1  0  0  0  0
 20 17  1  0  0  0  0
 20 37  2  0  0  0  0
 21 19  1  0  0  0  0
 22 18  1  0  0  0  0
 29 30  1  0  0  0  0
 29 31  1  0  0  0  0
 29 32  1  0  0  0  0
 29 12  1  0  0  0  0
 36 20  1  0  0  0  0
 38 36  1  0  0  0  0
M  END
