39

O          1.77500       -0.62800        0.08900
C          0.56300       -0.08600       -0.17500
O         -0.36500       -0.78100       -0.57300
C          0.45000        1.39100        0.00300
H          2.42900       -0.04700        0.51300
C         -0.79000        1.94000        0.08300
C         -0.91900        3.27700        0.17000
C          0.16900        4.10100        0.17900
C          1.39500        3.53100        0.12700
C          1.53500        2.19700        0.02700
C         -0.02600        5.60000        0.19100
N         -2.24600        3.82500        0.18200
O         -1.96900        1.19900        0.01500
H          2.54800        1.82200       -0.06800
H          2.29600        4.13700        0.13200
H         -2.92600        3.15700       -0.17800
H         -2.33700        4.71900       -0.29700
C          1.13900        6.55300       -0.00500
N          0.44600        7.60800       -0.70300
N         -0.67200        7.13600       -1.33300
N         -0.88800        5.96300       -0.96500
C          0.42700        8.92400       -0.30500
H          1.91500        6.17400       -0.67600
H          1.58100        6.88300        0.94200
H         -0.55200        5.88100        1.11500
H         -1.86500        0.39700       -0.53700
C         -0.75500        9.56100       -0.11600
C         -0.80800       10.86700        0.14900
C          0.34000       11.57600        0.22500
C          1.53000       10.95500        0.10800
C          1.57400        9.62300       -0.13800
C          0.30700       13.06800        0.34200
H         -1.77700       11.34100        0.26100
H         -1.69100        9.01700       -0.20500
H          2.54200        9.14100       -0.27000
H          2.46000       11.51000        0.17200
O         -0.92100       13.54800        0.54900
O          1.26900       13.79800        0.21800
H         -0.79700       14.51600        0.50300
