28

O          1.24300       -0.42800       -0.06000
C          0.05000        0.19800       -0.09400
O         -0.99300       -0.44000       -0.10100
C          0.09100        1.69500       -0.08100
H          2.04500        0.11600       -0.04500
C         -1.10900        2.31800       -0.06000
C         -1.18700        3.65600        0.02400
C         -0.07900        4.43200        0.09400
C          1.11100        3.79900        0.03200
C          1.20600        2.45800       -0.05600
C         -0.20500        5.92800        0.30400
F         -2.41500        4.21400        0.08700
H         -2.04100        1.75400       -0.08900
H          2.20800        2.04700       -0.07700
F          2.26100        4.50100        0.10500
C          0.96000        6.85900        0.01900
N          0.21100        8.05400       -0.24700
N         -1.05800        7.78200       -0.66500
N         -1.27700        6.55000       -0.52000
N          0.71000        9.30000       -0.06600
H          1.63900        6.98000        0.86700
H          1.51100        6.60600       -0.89200
H         -0.49800        6.06700        1.35600
N         -0.17100       10.16600       -0.25400
C          0.26500       11.44200       -0.02700
O         -0.77200       12.30600       -0.03600
O          1.39900       11.85900        0.16200
H         -0.34800       13.16900        0.13200
