22

O          1.51200        0.10300       -0.30400
C          0.26200        0.61300       -0.24300
O         -0.67600       -0.16700       -0.20200
C          0.13800        2.12200       -0.17700
H          2.28600        0.68000       -0.35100
C         -1.07100        2.72600       -0.03300
C         -1.14700        4.07900        0.12600
C         -0.04500        4.87600        0.04200
C          1.15300        4.26000       -0.12300
C          1.23600        2.91400       -0.20700
N         -0.06600        6.25900        0.19000
N         -2.41700        4.67800        0.46900
Cl        -2.58600        1.83500       -0.06300
H          2.23600        2.51100       -0.29400
Br         2.77600        5.24200       -0.18000
N         -1.02800        6.90700       -0.27700
C         -0.82100        8.25900       -0.15700
H         -2.84200        4.20400        1.26600
H         -2.35100        5.67200        0.66100
O         -1.98300        8.94700       -0.06500
O          0.23300        8.88000       -0.13900
H         -1.67900        9.86900        0.00300
