
 OpenBabel11042013083D

 44 46  0  0  1  0  0  0  0  0999 V2000
    1.8210   -0.3810   -0.1000 O   0  0  0  0  0  0  0  0  0  0  0  0
    0.5790    0.1350   -0.1870 C   0  0  0  0  0  0  0  0  0  0  0  0
   -0.4020   -0.5960   -0.1700 O   0  0  0  0  0  0  0  0  0  0  0  0
    0.4910    1.6320   -0.2420 C   0  0  1  0  0  0  0  0  0  0  0  0
    2.5570    0.2480   -0.1180 H   0  0  0  0  0  0  0  0  0  0  0  0
   -0.7670    2.1200   -0.2960 C   0  0  0  0  0  0  0  0  0  0  0  0
   -0.9840    3.4440   -0.2330 C   0  0  0  0  0  0  0  0  0  0  0  0
    0.0330    4.3380   -0.1050 C   0  0  2  0  0  0  0  0  0  0  0  0
    1.3120    3.8560   -0.1270 C   0  0  2  0  0  0  0  0  0  0  0  0
    1.5120    2.5140   -0.1940 C   0  0  0  0  0  0  0  0  0  0  0  0
   -0.3260    5.7820    0.2310 C   0  0  1  0  0  0  0  0  0  0  0  0
   -2.0240    3.7570   -0.2170 H   0  0  0  0  0  0  0  0  0  0  0  0
   -1.6260    1.4390   -0.3370 H   0  0  0  0  0  0  0  0  0  0  0  0
    2.5410    2.1710   -0.1560 H   0  0  0  0  0  0  0  0  0  0  0  0
    2.5290    4.7310    0.0080 C   0  0  0  0  0  0  0  0  0  0  0  0
    0.4410    6.8880   -0.3360 O   0  0  0  0  0  0  0  0  0  0  0  0
   -1.6690    7.7510    0.1730 C   0  0  0  0  0  0  0  0  0  0  0  0
   -1.7730    6.2460    0.0630 C   0  0  0  0  0  0  0  0  0  0  0  0
    0.2090    9.4550    0.1080 C   0  0  1  0  0  0  0  0  0  0  0  0
   -2.4350    5.8290    0.8280 H   0  0  0  0  0  0  0  0  0  0  0  0
   -2.2450    8.1620    1.0070 H   0  0  0  0  0  0  0  0  0  0  0  0
   -2.0620    8.1850   -0.7530 H   0  0  0  0  0  0  0  0  0  0  0  0
   -2.1740    5.9810   -0.9230 H   0  0  0  0  0  0  0  0  0  0  0  0
    0.0970    7.8510    1.4010 H   0  0  0  0  0  0  0  0  0  0  0  0
   -0.1690    8.0050    0.3440 C   0  0  2  0  0  0  0  0  0  0  0  0
   -0.1150    5.8040    1.3140 H   0  0  0  0  0  0  0  0  0  0  0  0
    2.3280    5.7030    0.4560 H   0  0  0  0  0  0  0  0  0  0  0  0
    3.2780    4.2580    0.6620 H   0  0  0  0  0  0  0  0  0  0  0  0
    2.9900    4.8920   -0.9750 H   0  0  0  0  0  0  0  0  0  0  0  0
    1.5970    9.9420   -0.2140 C   0  0  0  0  0  0  0  0  0  0  0  0
    1.1880   11.2880   -0.6150 N   0  0  0  0  0  0  0  0  0  0  0  0
   -0.0480   11.2160   -1.2370 N   0  0  0  0  0  0  0  0  0  0  0  0
   -0.5600   10.1010   -0.9690 N   0  0  0  0  0  0  0  0  0  0  0  0
    1.6350   12.5040   -0.1170 C   0  0  0  0  0  0  0  0  0  0  0  0
    2.0340    9.4360   -1.0830 H   0  0  0  0  0  0  0  0  0  0  0  0
    2.2900    9.9020    0.6310 H   0  0  0  0  0  0  0  0  0  0  0  0
   -0.1060    9.9630    1.0360 H   0  0  0  0  0  0  0  0  0  0  0  0
    0.8390   13.5790    0.0040 C   0  0  0  0  0  0  0  0  0  0  0  0
    1.2780   14.9550    0.2460 C   0  0  0  0  0  0  0  0  0  0  0  0
   -0.2270   13.4780   -0.1680 H   0  0  0  0  0  0  0  0  0  0  0  0
    2.7010   12.5400    0.0970 H   0  0  0  0  0  0  0  0  0  0  0  0
    0.2020   15.7630    0.1710 O   0  0  0  0  0  0  0  0  0  0  0  0
    2.4090   15.3670    0.3960 O   0  0  0  0  0  0  0  0  0  0  0  0
    0.5520   16.6760    0.1960 H   0  0  0  0  0  0  0  0  0  0  0  0
  1  5  1  0  0  0  0
  2  1  1  0  0  0  0
  3  2  2  0  0  0  0
  4  2  1  1  0  0  0
  4 10  5  0  0  0  0
  6  4  5  0  0  0  0
  6  7  5  0  0  0  0
  6 13  1  0  0  0  0
  7 12  1  0  0  0  0
  8  7  5  1  0  0  0
  8 11  1  0  0  0  0
  9  8  5  0  0  0  0
  9 15  1  1  0  0  0
 10  9  5  0  0  0  0
 10 14  1  0  0  0  0
 11 18  1  0  0  0  0
 11 26  1  1  0  0  0
 15 27  1  0  0  0  0
 15 28  1  0  0  0  0
 15 29  1  0  0  0  0
 16 11  1  0  0  0  0
 17 25  1  0  0  0  0
 17 22  1  0  0  0  0
 18 17  1  0  0  0  0
 18 23  1  0  0  0  0
 19 25  1  0  0  0  0
 19 33  1  0  0  0  0
 19 37  1  1  0  0  0
 20 18  1  0  0  0  0
 21 17  1  0  0  0  0
 25 16  1  0  0  0  0
 25 24  1  1  0  0  0
 30 19  1  0  0  0  0
 30 35  1  0  0  0  0
 30 36  1  0  0  0  0
 31 30  1  0  0  0  0
 32 31  1  0  0  0  0
 33 32  2  0  0  0  0
 34 31  1  0  0  0  0
 34 41  1  0  0  0  0
 38 34  2  0  0  0  0
 38 40  1  0  0  0  0
 39 38  1  0  0  0  0
 39 43  2  0  0  0  0
 42 39  1  0  0  0  0
 44 42  1  0  0  0  0
M  END
