
 OpenBabel11042013083D

 22 22  0  0  1  0  0  0  0  0999 V2000
    1.4710    0.6160   -0.0320 O   0  0  0  0  0  0  0  0  0  0  0  0
    0.2050    1.0930    0.0080 C   0  0  0  0  0  0  0  0  0  0  0  0
   -0.7270    0.3040    0.0920 O   0  0  0  0  0  0  0  0  0  0  0  0
    0.0330    2.5920   -0.0300 C   0  0  2  0  0  0  0  0  0  0  0  0
    2.1830    1.2820   -0.0940 H   0  0  0  0  0  0  0  0  0  0  0  0
   -1.1900    3.1780   -0.0550 C   0  0  2  0  0  0  0  0  0  0  0  0
   -1.3270    4.5380   -0.1370 C   0  0  2  0  0  0  0  0  0  0  0  0
   -0.2150    5.3330   -0.1400 C   0  0  2  0  0  0  0  0  0  0  0  0
    1.0080    4.7380   -0.0930 C   0  0  1  0  0  0  0  0  0  0  0  0
    1.1160    3.3910   -0.0490 C   0  0  2  0  0  0  0  0  0  0  0  0
   -0.2190    6.8380   -0.1630 C   0  0  0  0  0  0  0  0  0  0  0  0
   -3.1220    5.2220   -0.2350 Br  0  0  0  0  0  0  0  0  0  0  0  0
   -2.3750    2.3790    0.0180 N   0  0  0  0  0  0  0  0  0  0  0  0
    2.3570    2.8520   -0.0330 F   0  0  0  0  0  0  0  0  0  0  0  0
    2.2640    5.4590   -0.0960 N   0  0  0  0  0  0  0  0  0  0  0  0
   -2.3030    1.5020    0.5390 H   0  0  0  0  0  0  0  0  0  0  0  0
   -3.2530    2.8650    0.1750 H   0  0  0  0  0  0  0  0  0  0  0  0
    2.1510    6.3930   -0.5180 H   0  0  0  0  0  0  0  0  0  0  0  0
    2.4980    5.7270    0.8660 H   0  0  0  0  0  0  0  0  0  0  0  0
   -1.4090    7.4430   -0.0610 O   0  0  0  0  0  0  0  0  0  0  0  0
    0.7690    7.5530   -0.2460 O   0  0  0  0  0  0  0  0  0  0  0  0
   -1.2070    8.3990   -0.0960 H   0  0  0  0  0  0  0  0  0  0  0  0
  1  5  1  0  0  0  0
  2  1  1  0  0  0  0
  3  2  2  0  0  0  0
  4  2  1  6  0  0  0
  4 10  5  0  0  0  0
  6  4  5  0  0  0  0
  6  7  5  0  0  0  0
  6 13  1  1  0  0  0
  7 12  1  1  0  0  0
  8  7  5  0  0  0  0
  8 11  1  1  0  0  0
  9  8  5  0  0  0  0
  9 15  1  6  0  0  0
 10  9  5  0  0  0  0
 10 14  1  6  0  0  0
 11 21  2  0  0  0  0
 13 16  1  0  0  0  0
 13 17  1  0  0  0  0
 15 18  1  0  0  0  0
 15 19  1  0  0  0  0
 20 11  1  0  0  0  0
 22 20  1  0  0  0  0
M  END
