41

O          1.65300       -0.49200        0.00000
C          0.41700        0.00300       -0.00000
O         -0.60500       -0.65200        0.00000
C          0.39800        1.44500       -0.00000
H          2.35400        0.18100       -0.00000
C         -0.84300        1.96100       -0.00000
C         -1.05700        3.27500       -0.00000
C          0.04200        4.04800       -0.00000
C          1.28100        3.50800       -0.00000
C          1.48900        2.22900       -0.00000
C          0.02800        5.42600        0.00000
O         -2.42700        3.55000        0.00000
H         -1.73300        1.36200       -0.00000
H          2.55100        1.98700       -0.00000
H          2.22900        4.03300        0.00000
H         -2.79300        4.41800       -0.00000
C         -1.11300        6.14500        0.00000
C         -1.01700        7.44500       -0.00000
C          0.23400        7.90800       -0.00000
C          1.38300        7.31500        0.00000
C          1.25800        6.03200        0.00000
N          0.54600        9.14900       -0.00000
H         -1.94100        8.03800       -0.00000
H         -2.14700        5.87500        0.00000
H          2.26400        5.67500        0.00000
H          2.33000        7.84100       -0.00000
N         -0.49000        9.69700        0.00000
C         -0.25400       10.94500        0.00000
C         -1.43700       11.51400        0.00000
C         -1.36800       12.81700       -0.00000
C         -0.15400       13.40400       -0.00000
C          1.05100       12.79200        0.00000
C          0.97700       11.45700        0.00000
C         -0.17100       14.83700       -0.00000
H         -2.34800       13.26200       -0.00000
H         -2.35100       10.90700        0.00000
H          1.89700       10.83700        0.00000
H          2.03600       13.21600       -0.00000
O         -1.45200       15.23300       -0.00000
O          0.79600       15.56600       -0.00000
H         -1.46000       16.19300        0.00000
