46

O          1.33400       -0.65500       -0.06400
C          0.13300       -0.04900       -0.16600
O         -0.90100       -0.70500       -0.17600
C          0.16000        1.44900       -0.20500
H          2.10400       -0.07200        0.02400
C         -1.04800        2.05000       -0.11900
C         -1.14600        3.38900       -0.04700
C         -0.04100        4.16900       -0.04400
C          1.16000        3.56900       -0.20300
C          1.26200        2.22700       -0.28000
C         -0.12800        5.65000        0.25800
H         -2.14000        3.81400        0.06400
H         -1.96500        1.46000       -0.07200
H          2.26300        1.82100       -0.37600
H          2.06400        4.17600       -0.21800
O          0.78300        6.52100       -0.45800
C         -1.11300        7.80800        0.10500
C         -1.47700        6.33900        0.10700
C          1.13600        9.01200       -0.48700
H         -2.17300        6.08700        0.91300
H         -1.47700        8.32900        0.99800
H         -1.57600        8.27600       -0.76800
H         -1.95000        6.08600       -0.84900
H          0.76100        7.79200        1.11600
C          0.41800        7.80800        0.06800
H          0.16200        5.71400        1.32000
C          0.47400       10.13200       -0.84500
C          0.73200       11.43500       -0.13300
H         -0.55400       10.03800       -1.18300
H          2.16300        9.10300       -0.13300
O          1.62000       12.35700       -0.76900
C         -0.10700       13.65300        0.12400
C         -0.56600       12.22100        0.04800
N          1.87600       14.86600       -0.50400
H         -1.11900       11.90600        0.93700
H         -0.52500       14.21000       -0.72500
H         -0.42800       14.16300        1.03600
H         -1.23700       12.11500       -0.81400
H          1.86800       13.38100        0.99300
C          1.41600       13.56600        0.00600
H          1.14500       11.21100        0.86200
N          1.86900       15.70000        0.43600
C          1.59900       16.96500       -0.00700
O          0.28300       17.24500        0.06700
O          2.39100       17.81300       -0.38800
H          0.24600       18.17100       -0.24400
