
 OpenBabel11042013083D

 46 48  0  0  1  0  0  0  0  0999 V2000
    1.3340   -0.6550   -0.0640 O   0  0  0  0  0  0  0  0  0  0  0  0
    0.1330   -0.0490   -0.1660 C   0  0  0  0  0  0  0  0  0  0  0  0
   -0.9010   -0.7050   -0.1760 O   0  0  0  0  0  0  0  0  0  0  0  0
    0.1600    1.4490   -0.2050 C   0  0  1  0  0  0  0  0  0  0  0  0
    2.1040   -0.0720    0.0240 H   0  0  0  0  0  0  0  0  0  0  0  0
   -1.0480    2.0500   -0.1190 C   0  0  0  0  0  0  0  0  0  0  0  0
   -1.1460    3.3890   -0.0470 C   0  0  0  0  0  0  0  0  0  0  0  0
   -0.0410    4.1690   -0.0440 C   0  0  2  0  0  0  0  0  0  0  0  0
    1.1600    3.5690   -0.2030 C   0  0  0  0  0  0  0  0  0  0  0  0
    1.2620    2.2270   -0.2800 C   0  0  0  0  0  0  0  0  0  0  0  0
   -0.1280    5.6500    0.2580 C   0  0  1  0  0  0  0  0  0  0  0  0
   -2.1400    3.8140    0.0640 H   0  0  0  0  0  0  0  0  0  0  0  0
   -1.9650    1.4600   -0.0720 H   0  0  0  0  0  0  0  0  0  0  0  0
    2.2630    1.8210   -0.3760 H   0  0  0  0  0  0  0  0  0  0  0  0
    2.0640    4.1760   -0.2180 H   0  0  0  0  0  0  0  0  0  0  0  0
    0.7830    6.5210   -0.4580 O   0  0  0  0  0  0  0  0  0  0  0  0
   -1.1130    7.8080    0.1050 C   0  0  0  0  0  0  0  0  0  0  0  0
   -1.4770    6.3390    0.1070 C   0  0  0  0  0  0  0  0  0  0  0  0
    1.1360    9.0120   -0.4870 C   0  0  0  0  0  0  0  0  0  0  0  0
   -2.1730    6.0870    0.9130 H   0  0  0  0  0  0  0  0  0  0  0  0
   -1.4770    8.3290    0.9980 H   0  0  0  0  0  0  0  0  0  0  0  0
   -1.5760    8.2760   -0.7680 H   0  0  0  0  0  0  0  0  0  0  0  0
   -1.9500    6.0860   -0.8490 H   0  0  0  0  0  0  0  0  0  0  0  0
    0.7610    7.7920    1.1160 H   0  0  0  0  0  0  0  0  0  0  0  0
    0.4180    7.8080    0.0680 C   0  0  2  0  0  0  0  0  0  0  0  0
    0.1620    5.7140    1.3200 H   0  0  0  0  0  0  0  0  0  0  0  0
    0.4740   10.1320   -0.8450 C   0  0  0  0  0  0  0  0  0  0  0  0
    0.7320   11.4350   -0.1330 C   0  0  1  0  0  0  0  0  0  0  0  0
   -0.5540   10.0380   -1.1830 H   0  0  0  0  0  0  0  0  0  0  0  0
    2.1630    9.1030   -0.1330 H   0  0  0  0  0  0  0  0  0  0  0  0
    1.6200   12.3570   -0.7690 O   0  0  0  0  0  0  0  0  0  0  0  0
   -0.1070   13.6530    0.1240 C   0  0  0  0  0  0  0  0  0  0  0  0
   -0.5660   12.2210    0.0480 C   0  0  0  0  0  0  0  0  0  0  0  0
    1.8760   14.8660   -0.5040 N   0  0  0  0  0  0  0  0  0  0  0  0
   -1.1190   11.9060    0.9370 H   0  0  0  0  0  0  0  0  0  0  0  0
   -0.5250   14.2100   -0.7250 H   0  0  0  0  0  0  0  0  0  0  0  0
   -0.4280   14.1630    1.0360 H   0  0  0  0  0  0  0  0  0  0  0  0
   -1.2370   12.1150   -0.8140 H   0  0  0  0  0  0  0  0  0  0  0  0
    1.8680   13.3810    0.9930 H   0  0  0  0  0  0  0  0  0  0  0  0
    1.4160   13.5660    0.0060 C   0  0  2  0  0  0  0  0  0  0  0  0
    1.1450   11.2110    0.8620 H   0  0  0  0  0  0  0  0  0  0  0  0
    1.8690   15.7000    0.4360 N   0  0  0  0  0  0  0  0  0  0  0  0
    1.5990   16.9650   -0.0070 C   0  0  0  0  0  0  0  0  0  0  0  0
    0.2830   17.2450    0.0670 O   0  0  0  0  0  0  0  0  0  0  0  0
    2.3910   17.8130   -0.3880 O   0  0  0  0  0  0  0  0  0  0  0  0
    0.2460   18.1710   -0.2440 H   0  0  0  0  0  0  0  0  0  0  0  0
  1  5  1  0  0  0  0
  2  1  1  0  0  0  0
  3  2  2  0  0  0  0
  4  2  1  1  0  0  0
  4 10  5  0  0  0  0
  6  4  5  0  0  0  0
  6  7  5  0  0  0  0
  6 13  1  0  0  0  0
  7 12  1  0  0  0  0
  8  7  5  1  0  0  0
  8 11  1  0  0  0  0
  9  8  5  0  0  0  0
  9 15  1  0  0  0  0
 10  9  5  0  0  0  0
 10 14  1  0  0  0  0
 11 18  1  0  0  0  0
 11 26  1  1  0  0  0
 16 11  1  0  0  0  0
 17 25  1  0  0  0  0
 17 22  1  0  0  0  0
 18 17  1  0  0  0  0
 18 23  1  0  0  0  0
 19 25  1  0  0  0  0
 19 30  1  0  0  0  0
 20 18  1  0  0  0  0
 21 17  1  0  0  0  0
 25 16  1  0  0  0  0
 25 24  1  1  0  0  0
 27 19  2  0  0  0  0
 27 29  1  0  0  0  0
 28 27  1  0  0  0  0
 28 33  1  0  0  0  0
 28 41  1  1  0  0  0
 31 28  1  0  0  0  0
 32 40  1  0  0  0  0
 32 37  1  0  0  0  0
 33 32  1  0  0  0  0
 33 38  1  0  0  0  0
 34 40  1  0  0  0  0
 35 33  1  0  0  0  0
 36 32  1  0  0  0  0
 40 31  1  0  0  0  0
 40 39  1  1  0  0  0
 42 34  2  0  0  0  0
 43 42  1  0  0  0  0
 43 45  2  0  0  0  0
 44 43  1  0  0  0  0
 46 44  1  0  0  0  0
M  END
