
 OpenBabel11042013083D

 25 25  0  0  1  0  0  0  0  0999 V2000
    0.3610    0.5550   -1.0570 O   0  0  0  0  0  0  0  0  0  0  0  0
   -0.1080    1.1770    0.0420 C   0  0  0  0  0  0  0  0  0  0  0  0
   -0.6780    0.5910    0.9500 O   0  0  0  0  0  0  0  0  0  0  0  0
   -0.0610    2.6530   -0.0560 C   0  0  1  0  0  0  0  0  0  0  0  0
    0.7310    1.1580   -1.7300 H   0  0  0  0  0  0  0  0  0  0  0  0
   -1.2760    3.2050   -0.3160 C   0  0  1  0  0  0  0  0  0  0  0  0
   -1.3870    4.5460   -0.4470 C   0  0  2  0  0  0  0  0  0  0  0  0
   -0.2930    5.3110   -0.2340 C   0  0  1  0  0  0  0  0  0  0  0  0
    0.9150    4.7660    0.0590 C   0  0  2  0  0  0  0  0  0  0  0  0
    1.0640    3.4000    0.1160 C   0  0  1  0  0  0  0  0  0  0  0  0
   -0.4180    6.7790   -0.3670 C   0  0  0  0  0  0  0  0  0  0  0  0
   -3.0750    5.2910   -0.9200 Br  0  0  0  0  0  0  0  0  0  0  0  0
   -2.4190    2.4180   -0.4730 O   0  0  0  0  0  0  0  0  0  0  0  0
    2.4840    2.8450    0.3690 C   0  0  0  0  0  0  0  0  0  0  0  0
    2.3990    5.9250    0.4380 Br  0  0  0  0  0  0  0  0  0  0  0  0
    2.8750    1.3810    0.2050 C   0  0  0  0  0  0  0  0  0  0  0  0
    2.7680    1.0490   -0.8310 H   0  0  0  0  0  0  0  0  0  0  0  0
    2.3190    0.7230    0.8760 H   0  0  0  0  0  0  0  0  0  0  0  0
    3.9370    1.2650    0.4530 H   0  0  0  0  0  0  0  0  0  0  0  0
    3.1570    3.3620   -0.3300 H   0  0  0  0  0  0  0  0  0  0  0  0
    2.7800    3.1330    1.3860 H   0  0  0  0  0  0  0  0  0  0  0  0
   -2.3910    1.5700    0.0130 H   0  0  0  0  0  0  0  0  0  0  0  0
   -1.1310    7.3240    0.6400 O   0  0  0  0  0  0  0  0  0  0  0  0
    0.0700    7.4620   -1.2480 O   0  0  0  0  0  0  0  0  0  0  0  0
   -1.1720    8.2760    0.4120 H   0  0  0  0  0  0  0  0  0  0  0  0
  1  5  1  0  0  0  0
  2  1  1  0  0  0  0
  3  2  2  0  0  0  0
  4  2  1  1  0  0  0
  4 10  5  0  0  0  0
  6  4  5  0  0  0  0
  6  7  5  0  0  0  0
  6 13  1  6  0  0  0
  7 12  1  1  0  0  0
  8  7  5  0  0  0  0
  8 11  1  6  0  0  0
  9  8  5  0  0  0  0
  9 15  1  1  0  0  0
 10  9  5  0  0  0  0
 10 14  1  1  0  0  0
 11 24  2  0  0  0  0
 13 22  1  0  0  0  0
 14 20  1  0  0  0  0
 14 21  1  0  0  0  0
 16 17  1  0  0  0  0
 16 18  1  0  0  0  0
 16 19  1  0  0  0  0
 16 14  1  0  0  0  0
 23 11  1  0  0  0  0
 25 23  1  0  0  0  0
M  END
