22

O          1.57700        0.43900       -0.03600
C          0.33800        0.98200        0.02200
O         -0.61800        0.22100        0.06500
C          0.25700        2.50200        0.02600
H          2.36100        1.00400       -0.04600
C         -0.94500        3.14400        0.02900
C         -1.01500        4.50600        0.07100
C          0.12500        5.24700        0.07600
C          1.32400        4.61700        0.06000
C          1.37500        3.26600        0.04500
C          0.05600        6.68200        0.08500
Br        -2.72900        5.36400        0.10600
N         -2.17900        2.39800       -0.02300
H          2.36600        2.83200        0.04900
Br         2.97400        5.55300        0.05300
H         -2.55000        2.43500       -0.97700
H         -2.91800        2.87600        0.49600
C         -0.02700        7.88100        0.06600
C         -0.13200        9.31100        0.02100
O         -1.40000        9.77000        0.01000
O          0.82800       10.06000       -0.00800
H         -1.29100       10.74300       -0.02700
