26

O          1.24600        0.42600       -0.19700
C          0.05400        1.05700       -0.09000
O         -0.97500        0.40800        0.01300
C          0.12200        2.55700       -0.09400
H          1.99100        1.04300       -0.36500
C         -1.04000        3.22200       -0.12200
C         -1.11700        4.58200       -0.11100
C          0.06100        5.28700       -0.10000
C          1.25100        4.61100       -0.06900
C          1.27300        3.26100       -0.03700
C          0.16900        6.78900       -0.12100
C         -2.49000        5.27500       -0.08900
F         -2.18500        2.51400       -0.15600
O          2.48400        2.57900        0.06100
O          2.49000        5.25000       -0.06200
H          2.42900        6.22000       -0.21100
H          2.82900        2.66000        0.97300
C         -3.76200        4.44000        0.06900
H         -3.72000        3.82300        0.97200
H         -3.92500        3.79800       -0.80300
H         -4.63500        5.09400        0.15900
H         -2.60200        5.85100       -1.01600
H         -2.51400        5.97200        0.75900
O         -0.98300        7.47400       -0.08200
O          1.22000        7.41500       -0.17200
H         -0.72000        8.41900       -0.08400
