
 OpenBabel11042013083D

 32 32  0  0  1  0  0  0  0  0999 V2000
    1.4830   -0.1200   -0.0610 O   0  0  0  0  0  0  0  0  0  0  0  0
    0.3130    0.5490   -0.1690 C   0  0  0  0  0  0  0  0  0  0  0  0
   -0.7160   -0.0910   -0.3210 O   0  0  0  0  0  0  0  0  0  0  0  0
    0.3800    2.0620   -0.1170 C   0  0  2  0  0  0  0  0  0  0  0  0
    2.3150    0.3760   -0.0150 H   0  0  0  0  0  0  0  0  0  0  0  0
   -0.7600    2.8270   -0.1270 C   0  0  2  0  0  0  0  0  0  0  0  0
   -0.6250    4.1820   -0.1580 C   0  0  0  0  0  0  0  0  0  0  0  0
    0.5750    4.8010   -0.1320 C   0  0  2  0  0  0  0  0  0  0  0  0
    1.6700    4.0230   -0.0790 C   0  0  0  0  0  0  0  0  0  0  0  0
    1.5810    2.6860   -0.0820 C   0  0  0  0  0  0  0  0  0  0  0  0
    0.7940    6.1530   -0.1490 N   0  0  0  0  0  0  0  0  0  0  0  0
   -1.5080    4.8120   -0.2040 H   0  0  0  0  0  0  0  0  0  0  0  0
   -2.1690    2.2210   -0.0610 C   0  0  0  0  0  0  0  0  0  0  0  0
    2.5340    2.1770   -0.0560 H   0  0  0  0  0  0  0  0  0  0  0  0
    2.6500    4.4970   -0.0410 H   0  0  0  0  0  0  0  0  0  0  0  0
   -3.3040    3.1170    0.4440 C   0  0  0  0  0  0  0  0  0  0  0  0
   -3.0800    3.5010    1.4450 H   0  0  0  0  0  0  0  0  0  0  0  0
   -3.4950    3.9610   -0.2250 H   0  0  0  0  0  0  0  0  0  0  0  0
   -4.2340    2.5410    0.5090 H   0  0  0  0  0  0  0  0  0  0  0  0
   -2.1630    1.3840    0.6460 H   0  0  0  0  0  0  0  0  0  0  0  0
   -2.4420    1.8330   -1.0500 H   0  0  0  0  0  0  0  0  0  0  0  0
   -0.1580    6.9420   -0.0340 N   0  0  0  0  0  0  0  0  0  0  0  0
    0.3900    8.2110   -0.0090 N   0  0  0  0  0  0  0  0  0  0  0  0
   -0.4980    9.0770   -0.0240 N   0  0  0  0  0  0  0  0  0  0  0  0
   -0.0030   10.3520   -0.0080 C   0  0  0  0  0  0  0  0  0  0  0  0
   -0.8030   11.4160   -0.0060 C   0  0  0  0  0  0  0  0  0  0  0  0
   -0.2240   12.7580    0.0130 C   0  0  0  0  0  0  0  0  0  0  0  0
   -1.8810   11.3200   -0.0180 H   0  0  0  0  0  0  0  0  0  0  0  0
    1.0830   10.4720    0.0030 H   0  0  0  0  0  0  0  0  0  0  0  0
   -1.2070   13.6690    0.0070 O   0  0  0  0  0  0  0  0  0  0  0  0
    0.9510   13.0580    0.0310 O   0  0  0  0  0  0  0  0  0  0  0  0
   -0.7440   14.5310    0.0200 H   0  0  0  0  0  0  0  0  0  0  0  0
  1  5  1  0  0  0  0
  2  1  1  0  0  0  0
  3  2  2  0  0  0  0
  4  2  1  6  0  0  0
  4 10  5  0  0  0  0
  6  4  5  0  0  0  0
  6  7  5  0  0  0  0
  6 13  1  1  0  0  0
  7 12  1  0  0  0  0
  8  7  5  0  0  0  0
  8 11  1  1  0  0  0
  9  8  5  0  0  0  0
  9 15  1  0  0  0  0
 10  9  5  0  0  0  0
 10 14  1  0  0  0  0
 13 20  1  0  0  0  0
 13 21  1  0  0  0  0
 16 17  1  0  0  0  0
 16 18  1  0  0  0  0
 16 19  1  0  0  0  0
 16 13  1  0  0  0  0
 22 11  2  0  0  0  0
 23 22  1  0  0  0  0
 24 23  2  0  0  0  0
 25 24  1  0  0  0  0
 25 29  1  0  0  0  0
 26 25  2  0  0  0  0
 26 28  1  0  0  0  0
 27 26  1  0  0  0  0
 27 31  2  0  0  0  0
 30 27  1  0  0  0  0
 32 30  1  0  0  0  0
M  END
