30

O          1.28900       -0.01400       -0.10000
C          0.18700        0.74000       -0.27700
O         -0.85400        0.16700       -0.56800
C          0.33000        2.25300       -0.14700
H          2.11900        0.47700        0.01800
C         -0.82200        3.01300       -0.15300
C         -0.71300        4.37000       -0.17300
C          0.47200        5.01200       -0.13500
C          1.57100        4.24500       -0.05500
C          1.53200        2.89600       -0.06400
N          0.67700        6.37400       -0.15400
H         -1.60600        4.98600       -0.22700
C         -2.22800        2.39100       -0.08800
Br         3.24900        2.09800        0.05900
H          2.52900        4.76100        0.01000
N         -0.28300        7.16700       -0.09400
C          0.13300        8.48000       -0.06900
C         -0.70800        9.51900       -0.05300
C         -0.17000       10.88300       -0.01100
H         -1.78200        9.39600       -0.07100
H          1.20900        8.66000       -0.05400
C         -3.37200        3.23700        0.47300
H         -3.14800        3.56300        1.49500
H         -3.58500        4.11400       -0.14400
H         -4.28800        2.63700        0.51000
H         -2.20200        1.53100        0.59200
H         -2.51300        2.03700       -1.08700
O         -1.17400       11.77500       -0.01200
O          0.99500       11.21600        0.02500
H         -0.72700       12.64700        0.02000
