
 OpenBabel11042013083D

 48 51  0  0  1  0  0  0  0  0999 V2000
    1.1860   -0.1180    0.1890 O   0  0  0  0  0  0  0  0  0  0  0  0
    0.0360    0.5460    0.4380 C   0  0  0  0  0  0  0  0  0  0  0  0
   -0.9890   -0.0460    0.7390 O   0  0  0  0  0  0  0  0  0  0  0  0
    0.1180    2.0330    0.2680 C   0  0  1  0  0  0  0  0  0  0  0  0
    1.8980    0.4030   -0.2180 H   0  0  0  0  0  0  0  0  0  0  0  0
   -1.0500    2.6760    0.0420 C   0  0  0  0  0  0  0  0  0  0  0  0
   -1.0650    4.0120   -0.1550 C   0  0  0  0  0  0  0  0  0  0  0  0
    0.0680    4.7550   -0.1440 C   0  0  1  0  0  0  0  0  0  0  0  0
    1.2200    4.0980    0.1290 C   0  0  1  0  0  0  0  0  0  0  0  0
    1.2500    2.7670    0.3370 C   0  0  0  0  0  0  0  0  0  0  0  0
    0.0140    6.2540   -0.4690 C   0  0  2  0  0  0  0  0  0  0  0  0
   -2.0360    4.4750   -0.3440 H   0  0  0  0  0  0  0  0  0  0  0  0
   -1.9880    2.1230    0.0080 H   0  0  0  0  0  0  0  0  0  0  0  0
    2.2130    2.3080    0.5450 H   0  0  0  0  0  0  0  0  0  0  0  0
    2.3830    4.7790    0.1640 F   0  0  0  0  0  0  0  0  0  0  0  0
    1.0390    7.3140   -0.0240 C   0  0  0  0  0  0  0  0  0  0  0  0
    0.1870    8.5140   -0.1140 N   0  0  0  0  0  0  0  0  0  0  0  0
   -1.1190    8.0990    0.1630 N   0  0  0  0  0  0  0  0  0  0  0  0
   -1.2340    6.8560    0.0530 N   0  0  0  0  0  0  0  0  0  0  0  0
    0.4980    9.8510    0.4220 C   0  0  1  0  0  0  0  0  0  0  0  0
    1.3570    7.1800    1.0150 H   0  0  0  0  0  0  0  0  0  0  0  0
    1.8950    7.3940   -0.6970 H   0  0  0  0  0  0  0  0  0  0  0  0
   -0.0580    6.3020   -1.5630 H   0  0  0  0  0  0  0  0  0  0  0  0
    1.5620   10.8360   -0.1220 C   0  0  0  0  0  0  0  0  0  0  0  0
    1.0370   12.2110    0.4320 C   0  0  2  0  0  0  0  0  0  0  0  0
   -0.4360   11.9820    0.5120 N   0  0  0  0  0  0  0  0  0  0  0  0
   -0.6690   10.6550    0.0650 N   0  0  0  0  0  0  0  0  0  0  0  0
    1.2930   13.5780   -0.3030 C   0  0  2  0  0  0  0  0  0  0  0  0
   -1.4980   10.2100    0.4630 H   0  0  0  0  0  0  0  0  0  0  0  0
   -0.9050   12.6090   -0.1440 H   0  0  0  0  0  0  0  0  0  0  0  0
    2.5620   10.6010    0.2600 H   0  0  0  0  0  0  0  0  0  0  0  0
    1.3970   12.3100    1.4650 H   0  0  0  0  0  0  0  0  0  0  0  0
    1.6010   10.8320   -1.2190 H   0  0  0  0  0  0  0  0  0  0  0  0
    0.5910    9.7510    1.5120 H   0  0  0  0  0  0  0  0  0  0  0  0
    2.5750   14.3840   -0.0480 C   0  0  0  0  0  0  0  0  0  0  0  0
    2.2040   15.7980   -0.5450 C   0  0  1  0  0  0  0  0  0  0  0  0
    0.7240   15.8390   -0.4860 N   0  0  0  0  0  0  0  0  0  0  0  0
    0.3350   14.6210    0.1600 N   0  0  0  0  0  0  0  0  0  0  0  0
    2.7940   16.9870    0.2210 C   0  0  0  0  0  0  0  0  0  0  0  0
   -0.6350   14.3820   -0.0430 H   0  0  0  0  0  0  0  0  0  0  0  0
    0.4420   16.6700    0.0560 H   0  0  0  0  0  0  0  0  0  0  0  0
    3.4320   13.9900   -0.6020 H   0  0  0  0  0  0  0  0  0  0  0  0
    2.4920   15.9270   -1.5930 H   0  0  0  0  0  0  0  0  0  0  0  0
    2.8360   14.4060    1.0190 H   0  0  0  0  0  0  0  0  0  0  0  0
    1.1620   13.4260   -1.3830 H   0  0  0  0  0  0  0  0  0  0  0  0
    1.9320   18.0370    0.3280 O   0  0  0  0  0  0  0  0  0  0  0  0
    3.9410   17.1030    0.6220 O   0  0  0  0  0  0  0  0  0  0  0  0
    2.4580   18.7680    0.7150 H   0  0  0  0  0  0  0  0  0  0  0  0
  1  5  1  0  0  0  0
  2  1  1  0  0  0  0
  3  2  2  0  0  0  0
  4  2  1  1  0  0  0
  4 10  5  0  0  0  0
  6  4  5  0  0  0  0
  6  7  5  0  0  0  0
  6 13  1  0  0  0  0
  7 12  1  0  0  0  0
  8  7  5  6  0  0  0
  8 11  1  0  0  0  0
  9  8  5  0  0  0  0
  9 15  1  6  0  0  0
 10  9  5  0  0  0  0
 10 14  1  0  0  0  0
 11 19  1  0  0  0  0
 11 23  1  6  0  0  0
 16 11  1  0  0  0  0
 16 21  1  0  0  0  0
 16 22  1  0  0  0  0
 17 16  1  0  0  0  0
 18 17  1  0  0  0  0
 19 18  2  0  0  0  0
 20 17  1  0  0  0  0
 20 27  1  0  0  0  0
 20 34  1  1  0  0  0
 24 20  1  0  0  0  0
 24 31  1  0  0  0  0
 24 33  1  0  0  0  0
 25 24  1  0  0  0  0
 25 32  1  1  0  0  0
 26 25  1  0  0  0  0
 27 26  1  0  0  0  0
 28 25  1  0  0  0  0
 28 38  1  0  0  0  0
 28 45  1  6  0  0  0
 29 27  1  0  0  0  0
 30 26  1  0  0  0  0
 35 28  1  0  0  0  0
 35 42  1  0  0  0  0
 35 44  1  0  0  0  0
 36 35  1  0  0  0  0
 36 43  1  6  0  0  0
 37 36  1  0  0  0  0
 38 37  1  0  0  0  0
 39 36  1  0  0  0  0
 39 47  2  0  0  0  0
 40 38  1  0  0  0  0
 41 37  1  0  0  0  0
 46 39  1  0  0  0  0
 48 46  1  0  0  0  0
M  END
