29

O          1.75100        0.19800       -0.01700
C          0.51400        0.73600       -0.16200
O         -0.43100        0.01200       -0.44400
C          0.43400        2.23800       -0.00500
H          2.44000        0.76900        0.36100
C         -0.73800        2.86400        0.29600
C         -0.78900        4.21200        0.41500
C          0.33800        4.95300        0.24600
C          1.51600        4.34000       -0.03000
C          1.54100        2.99300       -0.15700
C          0.26000        6.38200        0.32300
C         -2.93600        5.02400       -0.23800
N         -1.94900        2.12000        0.49800
H          2.50100        2.54800       -0.40900
C          2.83400        5.07800       -0.18300
C          0.16700        7.57900        0.28700
C          0.03500        9.00000        0.16900
H         -2.69600        2.69100        0.88300
H         -2.28100        1.72900       -0.38700
H         -2.47200        5.26900       -1.19800
H         -3.56800        4.13600       -0.34100
H         -3.59200        5.85000        0.05400
O         -1.97900        4.84900        0.80800
H          2.78000        6.13700        0.08600
H          3.59100        4.63800        0.47800
H          3.18700        5.01700       -1.21900
O         -1.23500        9.42000        0.03000
O          0.98300        9.76600        0.15800
H         -1.14900       10.39100       -0.04700
