39

O          0.81900        0.13400       -1.44500
C         -0.16700        0.92000       -0.98500
O         -1.29900        0.46700       -0.85600
C          0.19000        2.33400       -0.59800
H          1.60400        0.59700       -1.76800
C         -0.88100        3.16000       -0.60800
C         -0.82300        4.46400       -0.23600
C          0.37100        4.96100        0.21100
C          1.40000        4.08000        0.34100
C          1.37700        2.81500       -0.14700
C          0.57700        6.45400        0.58600
C         -2.11800        5.29100       -0.22400
H         -1.83500        2.75300       -0.94200
C          2.72400        2.10200       -0.21400
O          2.50700        4.43900        1.09300
C          2.97300        1.05800        0.85200
H          3.62900        1.46600        1.62800
H          2.05100        0.71400        1.32700
H          3.48300        0.19400        0.41300
H          3.55000        2.82900       -0.17300
H          2.88900        1.69900       -1.21800
C         -3.43300        4.50600       -0.07600
H         -3.37600        3.76800        0.73200
H         -3.69400        3.98500       -1.00400
H         -4.26100        5.18400        0.15500
H         -2.09600        5.97900        0.62900
H         -2.17500        5.89800       -1.13400
H          2.61000        3.84200        1.85800
C          1.97300        6.93000        0.95800
N          2.00800        8.23200        0.37900
N          1.07500        8.36200       -0.60200
N          0.28900        7.36600       -0.57100
C          3.17200        8.97700        0.43200
H          2.79000        6.41600        0.44300
H          2.15900        6.96200        2.03300
H         -0.11600        6.72200        1.39400
O          3.14900       10.03600       -0.39500
O          4.13400        8.71500        1.14000
H          2.29200       10.01000       -0.85700
