
 OpenBabel11042013083D

 24 24  0  0  1  0  0  0  0  0999 V2000
    1.2440    0.1340    0.0090 O   0  0  0  0  0  0  0  0  0  0  0  0
    0.0840    0.8140    0.0150 C   0  0  0  0  0  0  0  0  0  0  0  0
   -0.9860    0.2190    0.0200 O   0  0  0  0  0  0  0  0  0  0  0  0
    0.1870    2.3060    0.0100 C   0  0  2  0  0  0  0  0  0  0  0  0
    2.0450    0.6900    0.0060 H   0  0  0  0  0  0  0  0  0  0  0  0
   -1.0230    2.9220    0.0130 C   0  0  0  0  0  0  0  0  0  0  0  0
   -1.1160    4.2610    0.0000 C   0  0  0  0  0  0  0  0  0  0  0  0
    0.0040    4.9980   -0.0140 C   0  0  1  0  0  0  0  0  0  0  0  0
    1.2110    4.4110   -0.0120 C   0  0  0  0  0  0  0  0  0  0  0  0
    1.3110    3.0670    0.0010 C   0  0  2  0  0  0  0  0  0  0  0  0
   -0.0910    6.3980   -0.0310 C   0  0  0  0  0  0  0  0  0  0  0  0
   -2.0950    4.7400    0.0010 H   0  0  0  0  0  0  0  0  0  0  0  0
   -1.9550    2.3570    0.0230 H   0  0  0  0  0  0  0  0  0  0  0  0
    2.9300    2.4370    0.0020 Cl  0  0  0  0  0  0  0  0  0  0  0  0
    2.1060    5.0340   -0.0210 H   0  0  0  0  0  0  0  0  0  0  0  0
   -0.1750    7.5910   -0.0380 C   0  0  0  0  0  0  0  0  0  0  0  0
   -0.2540    9.0870   -0.0370 C   0  0  0  0  0  0  0  0  0  0  0  0
   -0.2770   10.2800   -0.0250 C   0  0  0  0  0  0  0  0  0  0  0  0
   -0.2620   11.7830   -0.0080 C   0  0  0  0  0  0  0  0  0  0  0  0
   -0.2270   12.9770   -0.0020 C   0  0  0  0  0  0  0  0  0  0  0  0
   -0.1810   14.3980    0.0040 C   0  0  0  0  0  0  0  0  0  0  0  0
   -1.3940   14.9730    0.0030 O   0  0  0  0  0  0  0  0  0  0  0  0
    0.8570   15.0340    0.0040 O   0  0  0  0  0  0  0  0  0  0  0  0
   -1.1910   15.9290    0.0000 H   0  0  0  0  0  0  0  0  0  0  0  0
  1  5  1  0  0  0  0
  2  1  1  0  0  0  0
  3  2  2  0  0  0  0
  4  2  1  6  0  0  0
  4 10  5  0  0  0  0
  6  4  5  0  0  0  0
  6  7  5  0  0  0  0
  6 13  1  0  0  0  0
  7 12  1  0  0  0  0
  8  7  5  0  0  0  0
  8 11  1  6  0  0  0
  9  8  5  0  0  0  0
  9 15  1  0  0  0  0
 10  9  5  0  0  0  0
 10 14  1  6  0  0  0
 16 11  3  0  0  0  0
 17 16  1  0  0  0  0
 18 17  3  0  0  0  0
 19 18  1  0  0  0  0
 20 19  3  0  0  0  0
 21 20  1  0  0  0  0
 21 23  2  0  0  0  0
 22 21  1  0  0  0  0
 24 22  1  0  0  0  0
M  END
