38

O          2.10900       -0.05300        0.12100
C          0.93100        0.45600        0.53700
O          0.02400       -0.24100        0.97300
C          0.78900        1.92000        0.32700
H          2.65200        0.57200       -0.39300
C         -0.37300        2.36200       -0.19900
C         -0.53900        3.68800       -0.43300
C          0.44100        4.58800       -0.11600
C          1.58700        4.11200        0.42600
C          1.77100        2.79200        0.63700
C          0.24400        6.07500       -0.41400
C         -2.90100        3.97100       -0.36200
O         -1.39800        1.48300       -0.54100
H          2.70700        2.43600        1.06800
H          2.40000        4.79600        0.68200
O          1.13900        7.05300        0.22000
C         -0.93100        8.12300       -0.09400
C         -1.11600        6.63900       -0.02900
C          1.06700        9.60700        0.34000
H         -1.92500        6.36500       -0.70400
H         -1.45800        8.55900       -0.95000
H         -1.34200        8.57100        0.81900
H         -1.38200        6.34700        0.99400
H          0.84200        8.36100       -1.30700
C          0.57500        8.30800       -0.24100
H          0.40800        6.17900       -1.49700
H         -1.40000        0.68400        0.02900
H         -3.70800        4.35500       -0.99400
H         -2.88200        4.56200        0.55800
H         -3.13800        2.93300       -0.12300
O         -1.68300        4.12500       -1.09700
C          0.27300       10.69700        0.26300
C          0.66600       12.08800        0.48300
H         -0.75200       10.61300       -0.09400
H          2.10800        9.69500        0.63900
O         -0.32200       12.88300        0.01300
O          1.70700       12.50800        0.92400
H          0.02400       13.79700        0.08800
