48

O          1.01100       -0.18000        0.10800
C          0.04400        0.65400       -0.34400
O         -1.06400        0.24600       -0.65600
C          0.42900        2.09800       -0.32600
H          1.77200        0.26300        0.52300
C         -0.54800        3.01400       -0.18400
C         -0.28900        4.34300       -0.04000
C          1.02700        4.74700       -0.01900
C          1.98400        3.81400       -0.26800
C          1.70100        2.51200       -0.42600
C          1.54800        6.13900        0.38100
C         -1.46200        5.31200        0.15400
H         -1.57100        2.64400       -0.15600
H          2.52400        1.82800       -0.60600
H          3.03300        4.10200       -0.29400
C         -2.90000        4.76700        0.13900
H         -3.59500        5.53400        0.50100
H         -3.21200        4.50100       -0.87800
H         -3.03000        3.89400        0.78600
H         -1.42200        6.06400       -0.64500
H         -1.33100        5.82600        1.11200
O          2.93800        6.39100       -0.01300
C          1.94300        8.48900        0.20400
C          0.85500        7.43900        0.00800
C          4.57200        8.31700        0.17500
H         -0.00800        7.65400        0.64500
H          1.70800        9.17800        1.02400
H          2.03000        9.08100       -0.71300
H          0.52200        7.44100       -1.03500
H          3.25800        7.55600        1.61800
C          3.21600        7.69600        0.52600
H          1.56600        6.08900        1.48100
C          4.66900        9.64600       -0.05600
C          5.85300       10.24400       -0.21800
C          7.00400        9.54100       -0.14900
C          6.95000        8.19300        0.03000
C          5.73000        7.60600        0.18200
C          8.29100       10.30200       -0.24800
H          5.86900       11.32300       -0.37800
H          3.78800       10.28300       -0.07800
H          5.67600        6.53100        0.36200
C          8.20600        7.35100        0.11600
H          8.72100        7.32900       -0.85000
H          7.99100        6.31300        0.39400
H          8.88800        7.74400        0.87800
O          8.15200       11.60900        0.06900
O          9.39400        9.86400       -0.52200
H          9.06200       11.96600        0.00800
