41

O          1.40300       -1.16400       -0.00800
C          0.21500       -0.52700        0.09700
O         -0.83700       -1.11400        0.28900
C          0.31900        0.94900       -0.07500
H          2.13600       -0.60000       -0.31500
C         -0.64400        1.56600       -0.77900
C         -0.61900        2.90400       -0.91100
C          0.33800        3.67700       -0.32400
C          1.31100        3.03200        0.39100
C          1.29600        1.67900        0.49400
C          0.15500        5.16200       -0.35200
H         -1.43500        3.35900       -1.47200
H         -1.46100        0.99400       -1.21900
H          2.05700        1.18000        1.09100
Br         2.70000        3.89400        1.35200
C         -1.07300        5.66900       -0.09100
C         -1.30500        6.98500        0.07400
C         -0.28500        7.88300        0.01100
C          0.92800        7.38900       -0.36000
C          1.14100        6.06800       -0.55000
C         -0.41300        9.36300        0.39700
N         -2.64900        7.34100        0.37100
H         -1.90800        4.98800        0.04900
H          2.14500        5.74700       -0.81300
H          1.77800        8.06400       -0.46100
H         -2.78100        8.03100        1.09700
H         -3.30900        6.57900        0.48300
O          0.57600       10.24700       -0.18800
C         -1.33000       11.56900        0.12500
C         -1.72200       10.11100        0.16900
C          0.76000       12.78400       -0.48100
H         -2.43500        9.95200        0.98400
H         -1.78500       12.14300        0.94100
H         -1.67600       12.02000       -0.81200
H         -2.19600        9.82600       -0.77600
H          0.49500       11.65500        1.28400
C          0.18500       11.56100        0.23400
H         -0.20400        9.37800        1.47900
O          0.21000       13.93600       -0.02000
O          1.62800       12.81500       -1.33300
H          0.64800       14.64200       -0.53900
