38

O          0.42900        0.31400       -0.72500
C         -0.38800        1.12300       -0.02000
O         -1.33200        0.66300        0.60800
C         -0.11700        2.59900       -0.15900
H          1.02800        0.77400       -1.33400
C         -1.26500        3.30600       -0.13100
C         -1.26500        4.64100       -0.24700
C         -0.11100        5.30900       -0.43300
C          1.07500        4.61200       -0.49000
C          1.08300        3.24500       -0.29500
C         -0.13100        6.76400       -0.61000
H         -2.21300        5.16800       -0.19800
H         -2.22800        2.81100       -0.00300
C          2.42200        2.49300       -0.18700
C          2.37100        5.39000       -0.81600
C          2.92600        6.21700        0.33800
H          2.22600        6.98800        0.67400
H          3.83600        6.73400        0.01600
H          3.17500        5.58900        1.19800
H          2.20300        6.03900       -1.68500
H          3.16100        4.74600       -1.20900
C          2.63500        1.72100        1.11200
H          2.39600        2.34300        1.98100
H          2.04400        0.80600        1.16500
H          3.68800        1.42900        1.19300
H          3.27200        3.17500       -0.20200
H          2.58500        1.85700       -1.06300
C         -0.82800        7.70900        0.04800
C         -0.38800        9.08800       -0.10200
H         -1.59600        7.47600        0.77700
H          0.59100        7.13400       -1.33400
C         -1.07200       10.20400        0.18200
C         -0.36200       11.48500        0.00500
H         -2.10100       10.22100        0.51300
H          0.64500        9.20000       -0.44000
O         -1.19800       12.52100        0.17100
O          0.81700       11.65000       -0.26200
H         -0.61700       13.29800        0.02600
