28

O          1.34000       -0.29000       -0.06300
C          0.13000        0.31100       -0.05000
O         -0.88400       -0.36800       -0.00900
C          0.14100        1.81000       -0.04200
H          2.13600        0.25900       -0.10600
C         -1.05200        2.44400       -0.04100
C         -1.12300        3.78600        0.04100
C         -0.00700        4.55100        0.13400
C          1.17900        3.90600        0.08800
C          1.26000        2.56600        0.00000
C         -0.11500        6.05700        0.32600
H         -2.11400        4.23900        0.06000
F         -2.21800        1.76600       -0.09700
H          2.26100        2.15600       -0.00500
F          2.33500        4.59700        0.17600
C          1.04900        6.96000       -0.04600
N          0.33700        8.09300       -0.57400
N         -0.97400        7.81900       -0.81700
N         -1.21300        6.63400       -0.47600
C          0.63400        9.45100       -0.17900
H          1.68500        7.18200        0.81900
H          1.67000        6.54900       -0.84800
H         -0.36400        6.22500        1.38400
C          0.69300       10.62700        0.05000
C          0.51300       12.03000        0.19900
O         -0.78500       12.39300        0.19100
O          1.41700       12.84600        0.28700
H         -0.78500       13.37000        0.22700
