41

O          1.22400        0.65700       -0.00000
C         -0.05300        1.32400       -0.00000
O         -1.15200        0.71400       -0.00000
C         -0.07700        2.06500       -0.03300
H          2.43700        0.40300        0.00000
C         -1.18400        2.60700       -0.03300
C         -1.23600        4.27400        0.03500
C         -0.13600        3.98900       -0.02300
C          1.07300        4.34400        0.01000
C          0.76800        2.97000       -0.00700
C          0.07100        6.48800       -0.00200
N         -1.71200        3.04600        0.80400
H         -2.48700        1.64000       -0.02300
C          2.07300        2.77700        0.00000
C          1.22600        4.77800        0.00100
H         -1.44300        4.18300       -0.32200
H         -1.67200        4.13100        0.02000
H          0.35500        5.34600        0.21500
H          0.43300        5.35900       -0.14900
H          0.75700        5.55600        0.00000
O          0.16500        4.65300       -0.01600
C          2.07800        2.77300        0.00000
H          2.95100        2.93400       -0.00500
H          2.08100        2.77100        0.00000
H          2.91800        2.65200        0.08700
H          1.19900        2.60500       -0.00200
H          2.93700        1.47300       -0.01200
O          1.10100        7.01700        0.00100
C         -1.46400        7.97000        0.15600
C         -1.42100        6.53800       -0.00400
C          0.35400        9.86000        0.00200
H         -2.81400        6.41200       -0.00000
H         -1.72000        9.35200       -0.00000
H         -2.67900        7.91900       -0.07900
H         -2.08700        5.32700        0.00100
H          2.45200        8.23300        0.00300
C          0.68200        8.22800       -0.08300
H          1.95000        6.19800        0.00100
O         -1.12500       11.00700       -0.00100
O          1.59000       10.73600        0.00000
H         -1.36900       12.46100        0.00000
