
 OpenBabel11042013093D

 37 39  0  0  1  0  0  0  0  0999 V2000
    1.4330   -0.9200   -0.0520 O   0  0  0  0  0  0  0  0  0  0  0  0
    0.2040   -0.3690    0.0110 C   0  0  0  0  0  0  0  0  0  0  0  0
   -0.8060   -1.0570   -0.0040 O   0  0  0  0  0  0  0  0  0  0  0  0
    0.1730    1.1270    0.0610 C   0  0  1  0  0  0  0  0  0  0  0  0
    2.1760   -0.3090   -0.1810 H   0  0  0  0  0  0  0  0  0  0  0  0
   -1.0140    1.7050   -0.2120 C   0  0  0  0  0  0  0  0  0  0  0  0
   -1.1690    3.0500   -0.2290 C   0  0  2  0  0  0  0  0  0  0  0  0
   -0.1120    3.8750    0.0510 C   0  0  2  0  0  0  0  0  0  0  0  0
    1.0670    3.2610    0.3620 C   0  0  0  0  0  0  0  0  0  0  0  0
    1.2150    1.9230    0.3640 C   0  0  0  0  0  0  0  0  0  0  0  0
   -0.1570    5.3790    0.0500 C   0  0  1  0  0  0  0  0  0  0  0  0
   -2.4910    3.5020   -0.5520 C   0  0  0  0  0  0  0  0  0  0  0  0
   -1.8770    1.0710   -0.4270 H   0  0  0  0  0  0  0  0  0  0  0  0
    2.1910    1.5270    0.6240 H   0  0  0  0  0  0  0  0  0  0  0  0
    1.9460    3.8430    0.6290 H   0  0  0  0  0  0  0  0  0  0  0  0
   -1.2770    6.0760    0.3600 C   0  0  0  0  0  0  0  0  0  0  0  0
   -1.3130    7.4170    0.3570 C   0  0  0  0  0  0  0  0  0  0  0  0
   -0.2140    8.1560    0.0950 C   0  0  2  0  0  0  0  0  0  0  0  0
    0.9170    7.4790   -0.2040 C   0  0  2  0  0  0  0  0  0  0  0  0
    0.9390    6.1340   -0.2430 C   0  0  0  0  0  0  0  0  0  0  0  0
   -0.3220    9.6550    0.2060 C   0  0  1  0  0  0  0  0  0  0  0  0
   -2.2570    7.9090    0.5920 H   0  0  0  0  0  0  0  0  0  0  0  0
   -2.2100    5.5950    0.6370 H   0  0  0  0  0  0  0  0  0  0  0  0
    1.8910    5.6810   -0.5010 H   0  0  0  0  0  0  0  0  0  0  0  0
    2.0650    8.1460   -0.4430 F   0  0  0  0  0  0  0  0  0  0  0  0
    0.7680   10.5800   -0.2780 C   0  0  0  0  0  0  0  0  0  0  0  0
   -0.0460   11.7420   -0.5360 N   0  0  0  0  0  0  0  0  0  0  0  0
   -1.3440   11.4060   -0.7890 N   0  0  0  0  0  0  0  0  0  0  0  0
   -1.5000   10.1800   -0.5400 N   0  0  0  0  0  0  0  0  0  0  0  0
    0.3180   13.0270   -0.2480 C   0  0  0  0  0  0  0  0  0  0  0  0
    1.5440   10.7730    0.4680 H   0  0  0  0  0  0  0  0  0  0  0  0
    1.2190   10.2740   -1.2280 H   0  0  0  0  0  0  0  0  0  0  0  0
   -0.5000    9.8760    1.2700 H   0  0  0  0  0  0  0  0  0  0  0  0
   -3.5820    3.8290   -0.7720 N   0  0  0  0  0  0  0  0  0  0  0  0
   -0.6920   13.9170   -0.3410 O   0  0  0  0  0  0  0  0  0  0  0  0
    1.4210   13.4010    0.1230 O   0  0  0  0  0  0  0  0  0  0  0  0
   -0.2940   14.7560   -0.0370 H   0  0  0  0  0  0  0  0  0  0  0  0
  1  5  1  0  0  0  0
  2  1  1  0  0  0  0
  3  2  2  0  0  0  0
  4  2  1  1  0  0  0
  4 10  5  0  0  0  0
  6  4  5  0  0  0  0
  6  7  5  0  0  0  0
  6 13  1  0  0  0  0
  7 12  1  1  0  0  0
  8  7  5  0  0  0  0
  8  9  5  1  0  0  0
  8 11  1  0  0  0  0
  9 15  1  0  0  0  0
 10  9  5  0  0  0  0
 10 14  1  0  0  0  0
 11 16  5  1  0  0  0
 11 20  5  0  0  0  0
 12 34  3  0  0  0  0
 16 17  5  0  0  0  0
 16 23  1  0  0  0  0
 17 22  1  0  0  0  0
 18 17  5  1  0  0  0
 18 21  1  0  0  0  0
 19 18  5  0  0  0  0
 19 25  1  1  0  0  0
 20 19  5  0  0  0  0
 20 24  1  0  0  0  0
 21 29  1  0  0  0  0
 21 33  1  1  0  0  0
 26 21  1  0  0  0  0
 26 31  1  0  0  0  0
 26 32  1  0  0  0  0
 27 26  1  0  0  0  0
 28 27  1  0  0  0  0
 29 28  2  0  0  0  0
 30 27  1  0  0  0  0
 30 36  2  0  0  0  0
 35 30  1  0  0  0  0
 37 35  1  0  0  0  0
M  END
