45

O          1.65500       -0.85200        0.03800
C          0.36800       -0.47600        0.20400
O         -0.51300       -1.30600        0.05000
C          0.12200        0.98700        0.44100
H          2.35800       -0.19600        0.13100
C         -1.15200        1.46300        0.55200
C         -1.36700        2.79500        0.49400
C         -0.34000        3.64100        0.29700
C          0.92200        3.18900        0.38200
C          1.15400        1.86800        0.45300
C         -0.65800        4.98900       -0.22600
H         -2.37800        3.17800        0.49800
Cl        -2.59700        0.50700        0.61600
H          2.20200        1.59200        0.41400
H          1.79000        3.84700        0.28200
C          0.45100        5.97900       -0.32000
N         -0.36500        7.13800       -0.38400
N         -1.55400        6.95400        0.27300
N         -1.69400        5.73000        0.51100
C          0.16500        8.44700       -0.42500
H          1.07800        6.04500        0.58700
H          1.08000        5.86200       -1.21100
H         -1.04400        4.82300       -1.23900
C          1.63700        8.67800       -0.23200
N          1.71900        9.98200       -0.86700
N          0.80300        9.99300       -1.91700
N         -0.05900        9.08700       -1.72900
C          1.56800       11.09400        0.04900
H          2.29800        7.99800       -0.78200
H          1.94500        8.70200        0.81700
H         -0.36400        8.97700        0.37200
O          2.10700       12.29600       -0.49100
C          0.07000       12.90800        0.44600
C          0.12800       11.41200        0.47800
C          1.67000       14.73300       -0.15500
H         -0.65600       11.03900       -0.18900
H         -0.48400       13.22300       -0.44800
H         -0.43100       13.32800        1.32000
H         -0.08100       10.99300        1.46800
H          2.01900       13.25100        1.31700
C          1.53000       13.30800        0.33400
H          2.17300       10.86100        0.93300
O          0.70300       15.53600        0.34100
O          2.55400       15.20200       -0.85000
H          0.88300       16.40100       -0.06100
