
 OpenBabel11042013093D

 47 50  0  0  1  0  0  0  0  0999 V2000
    1.5630   -1.5500   -0.0210 O   0  0  0  0  0  0  0  0  0  0  0  0
    0.3290   -1.0580   -0.2680 C   0  0  0  0  0  0  0  0  0  0  0  0
   -0.5970   -1.7870   -0.5910 O   0  0  0  0  0  0  0  0  0  0  0  0
    0.1900    0.4220   -0.1150 C   0  0  2  0  0  0  0  0  0  0  0  0
    2.1920   -0.9260    0.3770 H   0  0  0  0  0  0  0  0  0  0  0  0
   -1.0450    0.9270    0.0320 C   0  0  0  0  0  0  0  0  0  0  0  0
   -1.2360    2.2580    0.1360 C   0  0  0  0  0  0  0  0  0  0  0  0
   -0.2190    3.1590    0.1040 C   0  0  1  0  0  0  0  0  0  0  0  0
    1.0180    2.5930   -0.0310 C   0  0  0  0  0  0  0  0  0  0  0  0
    1.2290    1.2710   -0.1430 C   0  0  0  0  0  0  0  0  0  0  0  0
   -0.3790    4.6750    0.1650 C   0  0  2  0  0  0  0  0  0  0  0  0
   -2.2690    2.5440    0.2300 H   0  0  0  0  0  0  0  0  0  0  0  0
   -1.9140    0.2690    0.0480 H   0  0  0  0  0  0  0  0  0  0  0  0
    2.2530    0.9450   -0.2860 H   0  0  0  0  0  0  0  0  0  0  0  0
    1.9320    3.1640   -0.0730 H   0  0  0  0  0  0  0  0  0  0  0  0
   -1.5330    5.4270    0.2470 C   0  0  1  0  0  0  0  0  0  0  0  0
   -1.4680    6.7850    0.2460 C   0  0  0  0  0  0  0  0  0  0  0  0
   -0.3070    7.4640    0.1710 C   0  0  1  0  0  0  0  0  0  0  0  0
    0.8190    6.7430    0.0990 C   0  0  0  0  0  0  0  0  0  0  0  0
    0.7700    5.4100    0.1030 C   0  0  0  0  0  0  0  0  0  0  0  0
   -0.2880    8.9590    0.1160 C   0  0  2  0  0  0  0  0  0  0  0  0
   -2.3880    7.3690    0.2960 H   0  0  0  0  0  0  0  0  0  0  0  0
   -3.3220    4.8080    0.3530 Br  0  0  0  0  0  0  0  0  0  0  0  0
    1.7560    4.9770    0.0370 H   0  0  0  0  0  0  0  0  0  0  0  0
    1.7970    7.2090    0.0220 H   0  0  0  0  0  0  0  0  0  0  0  0
    1.0520    9.6530    0.1400 C   0  0  0  0  0  0  0  0  0  0  0  0
    0.5950   10.9620    0.5550 N   0  0  0  0  0  0  0  0  0  0  0  0
   -0.4480   10.7640    1.4500 N   0  0  0  0  0  0  0  0  0  0  0  0
   -0.9170    9.5980    1.2970 N   0  0  0  0  0  0  0  0  0  0  0  0
    0.3430   11.9030   -0.5320 C   0  0  2  0  0  0  0  0  0  0  0  0
    1.7110    9.2820    0.9350 H   0  0  0  0  0  0  0  0  0  0  0  0
    1.5990    9.6610   -0.8070 H   0  0  0  0  0  0  0  0  0  0  0  0
   -0.8460    9.2750   -0.7790 H   0  0  0  0  0  0  0  0  0  0  0  0
    1.3000   12.9390   -0.4150 O   0  0  0  0  0  0  0  0  0  0  0  0
   -0.8120   13.9450   -0.0700 C   0  0  0  0  0  0  0  0  0  0  0  0
   -1.0340   12.5420   -0.5680 C   0  0  0  0  0  0  0  0  0  0  0  0
    1.3340   15.3590   -0.2190 C   0  0  0  0  0  0  0  0  0  0  0  0
   -1.3910   12.5730   -1.6040 H   0  0  0  0  0  0  0  0  0  0  0  0
   -1.4050   14.1540    0.8270 H   0  0  0  0  0  0  0  0  0  0  0  0
   -1.1370   14.6500   -0.8420 H   0  0  0  0  0  0  0  0  0  0  0  0
   -1.8140   12.0150   -0.0100 H   0  0  0  0  0  0  0  0  0  0  0  0
    0.8560   13.9450    1.3090 H   0  0  0  0  0  0  0  0  0  0  0  0
    0.6770   14.0480    0.2320 C   0  0  2  0  0  0  0  0  0  0  0  0
    0.5210   11.3900   -1.4840 H   0  0  0  0  0  0  0  0  0  0  0  0
    0.5590   16.4610   -0.0760 O   0  0  0  0  0  0  0  0  0  0  0  0
    2.4810   15.4510   -0.6350 O   0  0  0  0  0  0  0  0  0  0  0  0
   -0.3350   16.3070    0.2780 H   0  0  0  0  0  0  0  0  0  0  0  0
  1  5  1  0  0  0  0
  2  1  1  0  0  0  0
  3  2  2  0  0  0  0
  4  2  1  6  0  0  0
  4 10  5  0  0  0  0
  6  4  5  0  0  0  0
  6  7  5  0  0  0  0
  6 13  1  0  0  0  0
  7 12  1  0  0  0  0
  8  7  5  6  0  0  0
  8 11  1  0  0  0  0
  9  8  5  0  0  0  0
  9 15  1  0  0  0  0
 10  9  5  0  0  0  0
 10 14  1  0  0  0  0
 11 20  5  6  0  0  0
 16 11  5  0  0  0  0
 16 17  5  0  0  0  0
 16 23  1  6  0  0  0
 17 22  1  0  0  0  0
 18 17  5  6  0  0  0
 18 21  1  0  0  0  0
 19 18  5  0  0  0  0
 19 25  1  0  0  0  0
 20 19  5  0  0  0  0
 20 24  1  0  0  0  0
 21 29  1  0  0  0  0
 21 33  1  6  0  0  0
 26 21  1  0  0  0  0
 26 31  1  0  0  0  0
 26 32  1  0  0  0  0
 27 26  1  0  0  0  0
 28 27  1  0  0  0  0
 29 28  2  0  0  0  0
 30 27  1  0  0  0  0
 30 36  1  0  0  0  0
 30 44  1  6  0  0  0
 34 30  1  0  0  0  0
 35 43  1  0  0  0  0
 35 40  1  0  0  0  0
 36 35  1  0  0  0  0
 36 41  1  0  0  0  0
 37 43  1  0  0  0  0
 37 46  2  0  0  0  0
 38 36  1  0  0  0  0
 39 35  1  0  0  0  0
 43 34  1  0  0  0  0
 43 42  1  1  0  0  0
 45 37  1  0  0  0  0
 47 45  1  0  0  0  0
M  END
