
 OpenBabel11042013093D

 23 23  0  0  1  0  0  0  0  0999 V2000
    1.3160    0.2600    0.0140 O   0  0  0  0  0  0  0  0  0  0  0  0
    0.0900    0.8290    0.0180 C   0  0  0  0  0  0  0  0  0  0  0  0
   -0.8920    0.1030    0.0600 O   0  0  0  0  0  0  0  0  0  0  0  0
    0.0350    2.3370   -0.0550 C   0  0  1  0  0  0  0  0  0  0  0  0
    2.1180    0.7910   -0.0930 H   0  0  0  0  0  0  0  0  0  0  0  0
   -1.1470    3.0050   -0.1560 C   0  0  2  0  0  0  0  0  0  0  0  0
   -1.1590    4.3530   -0.2680 C   0  0  0  0  0  0  0  0  0  0  0  0
   -0.0210    5.0790   -0.2600 C   0  0  1  0  0  0  0  0  0  0  0  0
    1.1500    4.4190   -0.1120 C   0  0  2  0  0  0  0  0  0  0  0  0
    1.1710    3.0720   -0.0160 C   0  0  0  0  0  0  0  0  0  0  0  0
   -0.0420    6.4420   -0.4460 N   0  0  0  0  0  0  0  0  0  0  0  0
   -2.1080    4.8800   -0.3690 H   0  0  0  0  0  0  0  0  0  0  0  0
   -2.7160    2.2530   -0.1540 Cl  0  0  0  0  0  0  0  0  0  0  0  0
    2.1530    2.6250    0.0940 H   0  0  0  0  0  0  0  0  0  0  0  0
    2.3850    5.1340   -0.0430 C   0  0  0  0  0  0  0  0  0  0  0  0
   -0.1340    7.1160    0.6000 N   0  0  0  0  0  0  0  0  0  0  0  0
    0.2670    8.4210    0.3370 N   0  0  0  0  0  0  0  0  0  0  0  0
    3.4090    5.6700    0.0570 N   0  0  0  0  0  0  0  0  0  0  0  0
   -0.7200    9.1530    0.1360 N   0  0  0  0  0  0  0  0  0  0  0  0
   -0.3330   10.4580   -0.0110 C   0  0  0  0  0  0  0  0  0  0  0  0
   -1.4080   11.2740   -0.0510 O   0  0  0  0  0  0  0  0  0  0  0  0
    0.7880   10.9400   -0.0800 O   0  0  0  0  0  0  0  0  0  0  0  0
   -0.9960   12.1620   -0.0960 H   0  0  0  0  0  0  0  0  0  0  0  0
  1  5  1  0  0  0  0
  2  1  1  0  0  0  0
  3  2  2  0  0  0  0
  4  2  1  1  0  0  0
  4 10  5  0  0  0  0
  6  4  5  0  0  0  0
  6  7  5  0  0  0  0
  6 13  1  1  0  0  0
  7 12  1  0  0  0  0
  8  7  5  0  0  0  0
  8 11  1  6  0  0  0
  9  8  5  0  0  0  0
  9 15  1  1  0  0  0
 10  9  5  0  0  0  0
 10 14  1  0  0  0  0
 15 18  3  0  0  0  0
 16 11  2  0  0  0  0
 17 16  1  0  0  0  0
 19 17  2  0  0  0  0
 20 19  1  0  0  0  0
 20 22  2  0  0  0  0
 21 20  1  0  0  0  0
 23 21  1  0  0  0  0
M  END
