35

O          0.97300        0.71200       -0.25300
C         -0.18900        1.32600        0.04500
O         -1.21300        0.68000        0.22100
C         -0.15800        2.82600        0.03700
H          1.74600        1.30500       -0.30000
C         -1.34900        3.37900       -0.29000
C         -1.50700        4.71400       -0.31900
C         -0.47000        5.52300       -0.03200
C          0.74000        4.98700        0.27900
C          0.89300        3.63300        0.34000
C         -0.65500        6.94200       -0.00800
H         -2.48300        5.13000       -0.56100
H         -2.21200        2.75500       -0.52300
Br         2.58200        2.94900        0.88700
C          2.40100        6.45000       -0.52400
H          1.77800        6.41200       -1.42600
H          3.35900        5.96600       -0.73400
H          2.58900        7.49900       -0.27600
O          1.80700        5.82500        0.61700
C         -0.67100        8.12900        0.15500
C         -0.55900        9.52400        0.58000
C          0.71100       10.21900        0.13800
C          0.38200       11.66100        0.48200
N         -1.09300       11.76700        0.29200
N         -1.57000       10.41200        0.00300
C          1.15200       12.68500       -0.33600
H         -2.47300       10.23000        0.45000
H         -1.27900       12.41000       -0.48900
H          1.59500        9.85800        0.67300
H          0.60000       11.85900        1.53800
H          0.89800       10.09000       -0.93900
H         -0.63200        9.55300        1.67700
O          0.44300       13.80300       -0.61000
O          2.32400       12.60700       -0.67100
H          1.09100       14.40500       -1.03400
