40

O          1.47000       -0.66600       -0.09900
C          0.23000       -0.13300       -0.16000
O         -0.73900       -0.87500       -0.09400
C          0.15500        1.36700       -0.24300
H          2.23100       -0.08300       -0.24000
C         -1.02000        2.00400       -0.47900
C         -1.07500        3.35200       -0.42600
C          0.00000        4.11500       -0.12800
C          1.18200        3.47100        0.05700
C          1.24700        2.13300       -0.00200
C         -0.14400        5.57600        0.25600
H         -2.06100        3.79900       -0.56400
Cl        -2.54300        1.20700       -0.76800
H          2.21900        1.72100        0.22300
O          2.34000        4.15300        0.39800
O          0.55500        6.60600       -0.51300
C         -1.38200        7.56300        0.38800
C         -1.56600        6.08100        0.38700
C          0.42800        9.23500       -0.28200
H         -2.06700        5.71400        1.28300
H         -1.75300        8.04900        1.29400
H         -1.96900        7.90600       -0.46900
H         -2.18200        5.83400       -0.48500
H          0.61900        7.74300        1.16700
C          0.12200        7.80500        0.18500
H          0.28800        5.62400        1.26700
H          2.25400        5.12100        0.32700
C         -0.60600       10.08400       -0.47100
C         -0.46700       11.41200       -0.49600
C          0.74900       11.96100       -0.36800
C          1.82700       11.14700       -0.28300
C          1.66600        9.80000       -0.24300
C          0.83900       13.43900       -0.23800
H         -1.37000       12.01400       -0.55100
H         -1.64500        9.76900       -0.50000
H          2.54700        9.17200       -0.09800
H          2.82300       11.57500       -0.19700
O         -0.37100       14.04400       -0.24300
O          1.85600       14.08700       -0.05900
H         -0.19100       14.99000       -0.07900
