
 OpenBabel11042013093D

 29 30  0  0  1  0  0  0  0  0999 V2000
    0.9420   -0.0000   -0.4580 O   0  0  0  0  0  0  0  0  0  0  0  0
   -0.2050    0.5460   -0.0080 C   0  0  0  0  0  0  0  0  0  0  0  0
   -1.1080   -0.1970    0.3510 O   0  0  0  0  0  0  0  0  0  0  0  0
   -0.2980    2.0630   -0.0070 C   0  0  1  0  0  0  0  0  0  0  0  0
    1.6790    0.6200   -0.6020 H   0  0  0  0  0  0  0  0  0  0  0  0
   -1.5440    2.6450   -0.0060 C   0  0  2  0  0  0  0  0  0  0  0  0
   -1.6460    4.0070    0.0860 C   0  0  2  0  0  0  0  0  0  0  0  0
   -0.5480    4.8100    0.1280 C   0  0  2  0  0  0  0  0  0  0  0  0
    0.6630    4.2040    0.0940 C   0  0  0  0  0  0  0  0  0  0  0  0
    0.7950    2.8650    0.0440 C   0  0  1  0  0  0  0  0  0  0  0  0
   -0.6330    6.3300    0.3000 C   0  0  1  0  0  0  0  0  0  0  0  0
   -3.2300    4.7530    0.2170 Cl  0  0  0  0  0  0  0  0  0  0  0  0
   -2.8080    1.7900   -0.1050 C   0  0  0  0  0  0  0  0  0  0  0  0
    2.4440    2.2990    0.0840 Cl  0  0  0  0  0  0  0  0  0  0  0  0
    1.5700    4.8000    0.1450 H   0  0  0  0  0  0  0  0  0  0  0  0
   -3.7330    2.3500   -0.2600 H   0  0  0  0  0  0  0  0  0  0  0  0
   -2.9590    1.2160    0.8150 H   0  0  0  0  0  0  0  0  0  0  0  0
   -2.7520    1.1190   -0.9700 H   0  0  0  0  0  0  0  0  0  0  0  0
    0.6120    7.1890    0.1980 C   0  0  0  0  0  0  0  0  0  0  0  0
   -0.0070    8.4330   -0.1680 N   0  0  0  0  0  0  0  0  0  0  0  0
   -1.2020    8.2320   -0.7900 N   0  0  0  0  0  0  0  0  0  0  0  0
   -1.4990    7.0070   -0.7060 N   0  0  0  0  0  0  0  0  0  0  0  0
    0.5110    9.6700    0.0830 C   0  0  0  0  0  0  0  0  0  0  0  0
    1.2760    6.9100   -0.6290 H   0  0  0  0  0  0  0  0  0  0  0  0
    1.1840    7.2690    1.1260 H   0  0  0  0  0  0  0  0  0  0  0  0
   -1.0790    6.5110    1.2900 H   0  0  0  0  0  0  0  0  0  0  0  0
   -0.3020   10.6900   -0.2600 O   0  0  0  0  0  0  0  0  0  0  0  0
    1.5910    9.9040    0.6050 O   0  0  0  0  0  0  0  0  0  0  0  0
    0.1890   11.4870    0.0240 H   0  0  0  0  0  0  0  0  0  0  0  0
  1  5  1  0  0  0  0
  2  1  1  0  0  0  0
  3  2  2  0  0  0  0
  4  2  1  1  0  0  0
  4 10  5  0  0  0  0
  6  4  5  0  0  0  0
  6  7  5  0  0  0  0
  6 13  1  1  0  0  0
  7 12  1  1  0  0  0
  8  7  5  0  0  0  0
  8  9  5  1  0  0  0
  8 11  1  0  0  0  0
  9 15  1  0  0  0  0
 10  9  5  0  0  0  0
 10 14  1  1  0  0  0
 11 22  1  0  0  0  0
 11 26  1  1  0  0  0
 13 16  1  0  0  0  0
 13 17  1  0  0  0  0
 13 18  1  0  0  0  0
 19 11  1  0  0  0  0
 19 24  1  0  0  0  0
 19 25  1  0  0  0  0
 20 19  1  0  0  0  0
 21 20  1  0  0  0  0
 22 21  2  0  0  0  0
 23 20  1  0  0  0  0
 23 28  2  0  0  0  0
 27 23  1  0  0  0  0
 29 27  1  0  0  0  0
M  END
