38

O          1.39000       -0.74600        0.10800
C          0.23200       -0.05700        0.07700
O         -0.84400       -0.63000        0.16900
C          0.36100        1.42900       -0.06800
H          2.20800       -0.23400        0.02800
C         -0.81100        2.10300       -0.08200
C         -0.82500        3.44500       -0.19200
C          0.32200        4.15200       -0.29600
C          1.48800        3.47000       -0.28200
C          1.51500        2.12600       -0.17000
N          0.35700        5.52300       -0.30600
H         -1.78600        3.95000       -0.17700
H         -1.76400        1.58900        0.01000
H          2.49200        1.66100       -0.15400
H          2.42300        4.02100       -0.34100
N         -0.69800        6.10400       -0.63700
C         -1.00000        7.18200        0.30500
C          0.07200        8.23500        0.31700
N         -0.72100        9.43700        0.36400
N         -2.02500        9.16200        0.01200
N         -2.20500        7.92500       -0.08400
C         -0.20900       10.65600       -0.21900
H          0.68400        8.23400       -0.59200
H          0.71600        8.17000        1.20000
H         -1.17300        6.76200        1.30300
C          1.23300       11.03000        0.04700
N          1.07300       12.44500       -0.11700
N         -0.18500       12.84600        0.23900
N         -0.93600       11.84000        0.28100
N          2.10100       13.32100       -0.13300
H          1.57300       10.81000        1.06400
H          1.92700       10.61900       -0.69200
H         -0.36900       10.58400       -1.30400
N          1.79200       14.30900       -0.83800
C          1.46200       15.39100       -0.06900
O          0.17500       15.75700       -0.26800
O          2.15800       16.00400        0.72500
H          0.03000       16.44900        0.40400
