27

O          1.27800       -0.33900       -0.14100
C          0.12200        0.34500       -0.14100
O         -0.94900       -0.25000       -0.16900
C          0.21400        1.84300       -0.08000
H          2.09200        0.19500       -0.09300
C         -0.99200        2.45100       -0.18600
C         -1.14300        3.78800       -0.07100
C         -0.05500        4.57900        0.16800
C          1.15200        3.96400        0.21600
C          1.30300        2.62400        0.09400
C         -0.12800        6.08500        0.44200
C         -2.49300        4.26900       -0.17100
H         -1.89100        1.84800       -0.34500
Cl         2.91800        1.99000        0.20500
F          2.25200        4.72100        0.44100
N         -3.60400        4.59800       -0.27300
C          0.92200        7.04400       -0.09700
N          0.09400        8.21000       -0.30300
N         -1.22000        7.89300       -0.38700
N         -1.37100        6.68800       -0.08800
C          0.47700        9.51200       -0.14000
H          1.73500        7.25200        0.60500
H          1.33500        6.73900       -1.06500
H         -0.15700        6.19800        1.53600
O         -0.55300       10.38400       -0.19900
O          1.60700        9.91400        0.09100
H         -0.16300       11.25400        0.01400
