
 OpenBabel11042013093D

 25 25  0  0  1  0  0  0  0  0999 V2000
    0.7740   -0.0020   -0.6540 O   0  0  0  0  0  0  0  0  0  0  0  0
   -0.4330    0.5910   -0.5580 C   0  0  0  0  0  0  0  0  0  0  0  0
   -1.4410   -0.0950   -0.5990 O   0  0  0  0  0  0  0  0  0  0  0  0
   -0.4450    2.0960   -0.4130 C   0  0  1  0  0  0  0  0  0  0  0  0
    1.5230    0.6160   -0.7750 H   0  0  0  0  0  0  0  0  0  0  0  0
   -1.6230    2.7450   -0.1920 C   0  0  2  0  0  0  0  0  0  0  0  0
   -1.6500    4.1070   -0.0890 C   0  0  2  0  0  0  0  0  0  0  0  0
   -0.5110    4.8300   -0.2480 C   0  0  2  0  0  0  0  0  0  0  0  0
    0.6470    4.1700   -0.4400 C   0  0  2  0  0  0  0  0  0  0  0  0
    0.6980    2.8230   -0.4760 C   0  0  1  0  0  0  0  0  0  0  0  0
   -0.3800    6.3200   -0.1820 C   0  0  0  0  0  0  0  0  0  0  0  0
   -2.8780    4.7640    0.2040 N   0  0  0  0  0  0  0  0  0  0  0  0
   -2.8560    2.0320   -0.0060 C   0  0  0  0  0  0  0  0  0  0  0  0
    2.6800    2.3630    0.6620 C   0  0  0  0  0  0  0  0  0  0  0  0
    1.8160    4.8360   -0.5800 F   0  0  0  0  0  0  0  0  0  0  0  0
    3.0810    1.3850    0.9450 H   0  0  0  0  0  0  0  0  0  0  0  0
    2.0580    2.7200    1.4930 H   0  0  0  0  0  0  0  0  0  0  0  0
    3.5100    3.0530    0.4930 H   0  0  0  0  0  0  0  0  0  0  0  0
    1.9410    2.1940   -0.5630 O   0  0  0  0  0  0  0  0  0  0  0  0
   -3.8990    1.5580    0.2060 N   0  0  0  0  0  0  0  0  0  0  0  0
   -2.8850    5.7660    0.3960 H   0  0  0  0  0  0  0  0  0  0  0  0
   -3.7390    4.2810    0.4460 H   0  0  0  0  0  0  0  0  0  0  0  0
   -1.5490    6.9920   -0.1630 O   0  0  0  0  0  0  0  0  0  0  0  0
    0.6550    6.9640   -0.1460 O   0  0  0  0  0  0  0  0  0  0  0  0
   -1.2640    7.9320   -0.1530 H   0  0  0  0  0  0  0  0  0  0  0  0
  1  5  1  0  0  0  0
  2  1  1  0  0  0  0
  3  2  2  0  0  0  0
  4  2  1  1  0  0  0
  4 10  5  0  0  0  0
  6  4  5  0  0  0  0
  6  7  5  0  0  0  0
  6 13  1  1  0  0  0
  7 12  1  1  0  0  0
  8  7  5  0  0  0  0
  8 11  1  1  0  0  0
  9  8  5  0  0  0  0
  9 15  1  1  0  0  0
 10  9  5  0  0  0  0
 10 19  1  1  0  0  0
 11 24  2  0  0  0  0
 12 21  1  0  0  0  0
 12 22  1  0  0  0  0
 13 20  3  0  0  0  0
 14 16  1  0  0  0  0
 14 17  1  0  0  0  0
 14 18  1  0  0  0  0
 14 19  1  0  0  0  0
 23 11  1  0  0  0  0
 25 23  1  0  0  0  0
M  END
