
 OpenBabel11042013093D

 25 25  0  0  1  0  0  0  0  0999 V2000
    1.2430    0.3680   -0.0210 O   0  0  0  0  0  0  0  0  0  0  0  0
    0.0160    0.9430    0.0000 C   0  0  0  0  0  0  0  0  0  0  0  0
   -0.9630    0.2140    0.0510 O   0  0  0  0  0  0  0  0  0  0  0  0
   -0.0480    2.4540   -0.0150 C   0  0  1  0  0  0  0  0  0  0  0  0
    2.0660    0.8770   -0.0640 H   0  0  0  0  0  0  0  0  0  0  0  0
   -1.2110    3.1610   -0.0570 C   0  0  1  0  0  0  0  0  0  0  0  0
   -1.1990    4.5230   -0.0240 C   0  0  0  0  0  0  0  0  0  0  0  0
   -0.0440    5.2330    0.0380 C   0  0  2  0  0  0  0  0  0  0  0  0
    1.1090    4.5110    0.0550 C   0  0  1  0  0  0  0  0  0  0  0  0
    1.0980    3.1640    0.0310 C   0  0  0  0  0  0  0  0  0  0  0  0
    0.0360    6.7100    0.0980 C   0  0  0  0  0  0  0  0  0  0  0  0
   -2.1560    5.0450   -0.0480 H   0  0  0  0  0  0  0  0  0  0  0  0
   -2.7830    2.4170   -0.1640 Cl  0  0  0  0  0  0  0  0  0  0  0  0
    2.0690    2.6890    0.0550 H   0  0  0  0  0  0  0  0  0  0  0  0
    2.3990    5.1210    0.0980 C   0  0  0  0  0  0  0  0  0  0  0  0
    3.4590    5.5810    0.1370 N   0  0  0  0  0  0  0  0  0  0  0  0
   -0.8930    7.6660   -0.0500 C   0  0  0  0  0  0  0  0  0  0  0  0
   -0.5140    9.0480   -0.0230 C   0  0  0  0  0  0  0  0  0  0  0  0
   -1.9400    7.4520   -0.2200 H   0  0  0  0  0  0  0  0  0  0  0  0
    1.0380    7.1040    0.2810 H   0  0  0  0  0  0  0  0  0  0  0  0
   -0.2590   10.2240   -0.0210 C   0  0  0  0  0  0  0  0  0  0  0  0
   -0.0950   11.6540   -0.0190 C   0  0  0  0  0  0  0  0  0  0  0  0
   -1.2730   12.3110   -0.0170 O   0  0  0  0  0  0  0  0  0  0  0  0
    0.9790   12.2290   -0.0140 O   0  0  0  0  0  0  0  0  0  0  0  0
   -1.0320   13.2580    0.0000 H   0  0  0  0  0  0  0  0  0  0  0  0
  1  5  1  0  0  0  0
  2  1  1  0  0  0  0
  3  2  2  0  0  0  0
  4  2  1  1  0  0  0
  4 10  5  0  0  0  0
  6  4  5  0  0  0  0
  6  7  5  0  0  0  0
  6 13  1  6  0  0  0
  7 12  1  0  0  0  0
  8  7  5  0  0  0  0
  8 11  1  1  0  0  0
  9  8  5  0  0  0  0
  9 15  1  6  0  0  0
 10  9  5  0  0  0  0
 10 14  1  0  0  0  0
 11 20  1  0  0  0  0
 15 16  3  0  0  0  0
 17 11  2  0  0  0  0
 17 19  1  0  0  0  0
 18 17  1  0  0  0  0
 21 18  3  0  0  0  0
 22 21  1  0  0  0  0
 22 24  2  0  0  0  0
 23 22  1  0  0  0  0
 25 23  1  0  0  0  0
M  END
