
 OpenBabel11042013093D

 24 24  0  0  1  0  0  0  0  0999 V2000
    1.5280    0.6170   -0.1770 O   0  0  0  0  0  0  0  0  0  0  0  0
    0.3310    1.1680   -0.4800 C   0  0  0  0  0  0  0  0  0  0  0  0
   -0.6010    0.4680   -0.8520 O   0  0  0  0  0  0  0  0  0  0  0  0
    0.2320    2.6570   -0.3180 C   0  0  2  0  0  0  0  0  0  0  0  0
    2.2620    1.2490   -0.0430 H   0  0  0  0  0  0  0  0  0  0  0  0
   -0.9440    3.2670   -0.0110 C   0  0  2  0  0  0  0  0  0  0  0  0
   -1.0200    4.6390   -0.0420 C   0  0  1  0  0  0  0  0  0  0  0  0
    0.1180    5.3860   -0.1720 C   0  0  1  0  0  0  0  0  0  0  0  0
    1.3090    4.7460   -0.3610 C   0  0  2  0  0  0  0  0  0  0  0  0
    1.3360    3.4080   -0.4960 C   0  0  1  0  0  0  0  0  0  0  0  0
    0.1210    6.8960   -0.1170 C   0  0  0  0  0  0  0  0  0  0  0  0
   -2.4030    5.2740    0.0240 C   0  0  0  0  0  0  0  0  0  0  0  0
   -2.1540    2.4740    0.4490 C   0  0  0  0  0  0  0  0  0  0  0  0
    2.5130    2.7990   -0.7720 F   0  0  0  0  0  0  0  0  0  0  0  0
    2.8620    5.5390   -0.4010 Cl  0  0  0  0  0  0  0  0  0  0  0  0
   -3.1850    4.6090   -0.3590 H   0  0  0  0  0  0  0  0  0  0  0  0
   -2.4810    6.1360   -0.6470 H   0  0  0  0  0  0  0  0  0  0  0  0
   -2.6640    5.5600    1.0460 H   0  0  0  0  0  0  0  0  0  0  0  0
   -2.5590    2.9390    1.3600 H   0  0  0  0  0  0  0  0  0  0  0  0
   -2.9420    2.4310   -0.3100 H   0  0  0  0  0  0  0  0  0  0  0  0
   -1.9230    1.4560    0.7720 H   0  0  0  0  0  0  0  0  0  0  0  0
   -0.9570    7.4360    0.4630 O   0  0  0  0  0  0  0  0  0  0  0  0
    0.9880    7.6480   -0.5270 O   0  0  0  0  0  0  0  0  0  0  0  0
   -0.8310    8.3990    0.3280 H   0  0  0  0  0  0  0  0  0  0  0  0
  1  5  1  0  0  0  0
  2  1  1  0  0  0  0
  3  2  2  0  0  0  0
  4  2  1  6  0  0  0
  4 10  5  0  0  0  0
  6  4  5  0  0  0  0
  6  7  5  0  0  0  0
  6 13  1  1  0  0  0
  7 12  1  6  0  0  0
  8  7  5  0  0  0  0
  8 11  1  6  0  0  0
  9  8  5  0  0  0  0
  9 15  1  1  0  0  0
 10  9  5  0  0  0  0
 10 14  1  1  0  0  0
 11 23  2  0  0  0  0
 12 16  1  0  0  0  0
 12 17  1  0  0  0  0
 12 18  1  0  0  0  0
 13 19  1  0  0  0  0
 13 20  1  0  0  0  0
 13 21  1  0  0  0  0
 22 11  1  0  0  0  0
 24 22  1  0  0  0  0
M  END
