24

O          1.52800        0.61700       -0.17700
C          0.33100        1.16800       -0.48000
O         -0.60100        0.46800       -0.85200
C          0.23200        2.65700       -0.31800
H          2.26200        1.24900       -0.04300
C         -0.94400        3.26700       -0.01100
C         -1.02000        4.63900       -0.04200
C          0.11800        5.38600       -0.17200
C          1.30900        4.74600       -0.36100
C          1.33600        3.40800       -0.49600
C          0.12100        6.89600       -0.11700
C         -2.40300        5.27400        0.02400
C         -2.15400        2.47400        0.44900
F          2.51300        2.79900       -0.77200
Cl         2.86200        5.53900       -0.40100
H         -3.18500        4.60900       -0.35900
H         -2.48100        6.13600       -0.64700
H         -2.66400        5.56000        1.04600
H         -2.55900        2.93900        1.36000
H         -2.94200        2.43100       -0.31000
H         -1.92300        1.45600        0.77200
O         -0.95700        7.43600        0.46300
O          0.98800        7.64800       -0.52700
H         -0.83100        8.39900        0.32800
