38

O          1.91500       -0.61000        0.10500
C          0.70500       -0.03500        0.19900
O         -0.31100       -0.71800        0.15900
C          0.67500        1.46800        0.29400
H          2.66700        0.00800        0.12100
C         -0.58300        1.95700        0.37600
C         -0.83300        3.27400        0.33300
C          0.18100        4.17100        0.18500
C          1.44200        3.68600        0.19800
C          1.69500        2.35300        0.24100
C         -0.07100        5.63900       -0.20200
O         -2.15700        3.66900        0.34300
H         -1.43400        1.28300        0.45300
Cl         3.36700        1.88200        0.14800
H          2.26600        4.38600        0.09100
H         -2.70500        3.14900       -0.27500
O          0.66900        6.71400        0.44600
C         -1.37300        7.62000       -0.29400
C         -1.50300        6.13600       -0.17200
C          0.33700        9.27800        0.45500
H         -1.98300        5.93100        0.79200
H         -1.92700        8.07300        0.54000
H         -1.80200        8.00200       -1.22500
H         -2.11400        5.72300       -0.98000
H          0.55700        7.92500       -1.21800
C          0.12900        7.90500       -0.20600
H          0.25900        5.66900       -1.25200
C          1.56400       10.07400        0.05800
N          0.96500       11.35800       -0.23300
N         -0.37800       11.28400       -0.38400
N         -0.76900       10.15600       -0.03000
C          1.51600       12.58800        0.00900
H          2.30900       10.16100        0.85500
H          2.04800        9.70900       -0.85400
H          0.27400        9.20200        1.54700
O          0.65400       13.60400       -0.14600
O          2.65900       12.81500        0.38200
H          1.11800       14.40600        0.15700
