
 OpenBabel11042013093D

 23 23  0  0  1  0  0  0  0  0999 V2000
    1.2160    0.0730   -0.3400 O   0  0  0  0  0  0  0  0  0  0  0  0
    0.2080    0.7190    0.2810 C   0  0  0  0  0  0  0  0  0  0  0  0
   -0.5760    0.1030    0.9880 O   0  0  0  0  0  0  0  0  0  0  0  0
    0.1580    2.2150    0.0940 C   0  0  1  0  0  0  0  0  0  0  0  0
    1.7540    0.5980   -0.9520 H   0  0  0  0  0  0  0  0  0  0  0  0
   -1.0590    2.8150   -0.0390 C   0  0  1  0  0  0  0  0  0  0  0  0
   -1.1800    4.1790   -0.0100 C   0  0  2  0  0  0  0  0  0  0  0  0
   -0.0630    4.9400    0.1270 C   0  0  2  0  0  0  0  0  0  0  0  0
    1.1350    4.3230    0.1770 C   0  0  0  0  0  0  0  0  0  0  0  0
    1.2830    2.9800    0.1690 C   0  0  1  0  0  0  0  0  0  0  0  0
   -0.0560    6.3050    0.3260 N   0  0  0  0  0  0  0  0  0  0  0  0
   -2.8850    5.0320   -0.0780 Br  0  0  0  0  0  0  0  0  0  0  0  0
   -2.5130    1.8430   -0.2640 Cl  0  0  0  0  0  0  0  0  0  0  0  0
    2.6990    2.4670    0.3260 C   0  0  0  0  0  0  0  0  0  0  0  0
    2.0170    4.9570    0.2750 H   0  0  0  0  0  0  0  0  0  0  0  0
   -0.3980    7.0490   -0.6180 N   0  0  0  0  0  0  0  0  0  0  0  0
   -0.1900    8.3560   -0.2500 C   0  0  0  0  0  0  0  0  0  0  0  0
    3.0730    2.0620   -0.6200 H   0  0  0  0  0  0  0  0  0  0  0  0
    3.3970    3.2680    0.6010 H   0  0  0  0  0  0  0  0  0  0  0  0
    2.7700    1.7100    1.1110 H   0  0  0  0  0  0  0  0  0  0  0  0
   -1.3190    9.0940   -0.2850 O   0  0  0  0  0  0  0  0  0  0  0  0
    0.8630    8.8780    0.0930 O   0  0  0  0  0  0  0  0  0  0  0  0
   -1.0100    9.9650    0.0360 H   0  0  0  0  0  0  0  0  0  0  0  0
  1  5  1  0  0  0  0
  2  1  1  0  0  0  0
  3  2  2  0  0  0  0
  4  2  1  1  0  0  0
  4 10  5  0  0  0  0
  6  4  5  0  0  0  0
  6  7  5  0  0  0  0
  6 13  1  6  0  0  0
  7 12  1  1  0  0  0
  8  7  5  0  0  0  0
  8 11  1  1  0  0  0
  9  8  5  0  0  0  0
  9 15  1  0  0  0  0
 10  9  5  0  0  0  0
 10 14  1  1  0  0  0
 14 18  1  0  0  0  0
 14 19  1  0  0  0  0
 14 20  1  0  0  0  0
 16 11  2  0  0  0  0
 17 16  1  0  0  0  0
 17 22  2  0  0  0  0
 21 17  1  0  0  0  0
 23 21  1  0  0  0  0
M  END
