44

O          1.77500        1.36900       -0.13100
C          0.66100        2.08200       -0.39100
O         -0.38400        1.53900       -0.72200
C          0.79900        3.56300       -0.20700
H          2.50800        1.86500        0.27200
C         -0.33600        4.22700        0.05400
C         -0.36800        5.57400        0.18600
C          0.78800        6.32100        0.08600
C          1.93300        5.61800       -0.16700
C          1.93200        4.27500       -0.33400
C          0.65100        7.88000        0.27300
C         -2.77600        5.55800       -0.01200
H         -1.24800        3.64300        0.15200
H          2.86200        3.76600       -0.57000
Cl         3.49700        6.35100       -0.33000
C          1.74500        9.01700        0.27400
C          1.18400       10.15300       -0.61600
N         -0.26300        9.85100       -0.60700
N         -0.30700        8.41700       -0.72500
C          1.38800       11.67900       -0.34400
H         -1.23500        8.03300       -0.51600
H         -0.62800       10.15100        0.30600
H          2.70600        8.71800       -0.13700
H          1.56200        9.97700       -1.63300
H          1.91100        9.36400        1.30100
H          0.18700        7.97900        1.26900
H         -3.06100        4.78900        0.71400
H         -2.66300        5.12400       -1.01300
H         -3.58600        6.29100       -0.06000
O         -1.58400        6.23000        0.41400
C          2.77600       12.24100       -0.05800
C          2.50700       13.60100        0.60800
N          1.04900       13.62900        0.89000
N          0.58600       12.25400        0.75100
C          2.93800       14.81400       -0.23200
H         -0.40600       12.22700        0.49400
H          0.61100       14.27000        0.21200
H          3.32300       11.60300        0.64400
H          3.04400       13.68800        1.55900
H          3.36100       12.33600       -0.97800
H          1.03800       12.17500       -1.26500
O          2.03100       15.81900       -0.27200
O          4.01400       14.95600       -0.79300
H          2.49600       16.55200       -0.73100
