33

O          1.79600        0.30600       -0.04200
C          0.64900        0.89500        0.35400
O         -0.34400        0.26000        0.66800
C          0.70100        2.38700        0.33500
H          2.47600        0.91800       -0.38100
C         -0.30400        3.10200       -0.21800
C         -0.29400        4.45800       -0.10500
C          0.82800        5.11400        0.34600
C          1.85000        4.36700        0.85500
C          1.74400        3.01100        0.89700
C          0.84200        6.62400        0.05500
C         -2.67100        4.81100       -0.00300
C         -1.34600        2.41800       -1.08300
H          2.54400        2.42700        1.34600
Br         3.49100        5.02900        1.50400
H         -2.62100        4.04500        0.78100
H         -3.27200        4.43800       -0.84000
H         -3.19200        5.67800        0.41400
O         -1.39200        5.21900       -0.52000
H         -2.20700        2.07300       -0.50700
H         -0.91200        1.57900       -1.63100
H         -1.68500        3.10000       -1.87400
C          2.05700        7.51800        0.07200
N          1.38400        8.78700        0.14300
N          0.15600        8.66600        0.73300
N         -0.11500        7.43300        0.86100
C          1.98900        9.98600       -0.10400
H          2.66200        7.48200        0.97800
H          2.68800        7.43900       -0.81700
H          0.48600        6.69800       -0.98800
O          1.19200       11.06000        0.06200
O          3.14700       10.14500       -0.46600
H          1.77700       11.81200       -0.15800
