
 OpenBabel07202118373D

 41 43  0  0  1  0  0  0  0  0999 V2000
    2.2210   -0.4770    0.2580 O   0  0  0  0  0  0  0  0  0  0  0  0
    0.9640   -0.5670   -0.0770 C   0  0  0  0  0  0  0  0  0  0  0  0
    0.2950   -1.5610    0.1120 O   0  0  0  0  0  0  0  0  0  0  0  0
    0.5150    0.6520   -0.5790 N   0  0  0  0  0  0  0  0  0  0  0  0
    2.5030    0.4170    0.0000 H   0  0  0  0  0  0  0  0  0  0  0  0
    0.3030    1.8430   -0.1600 N   0  0  0  0  0  0  0  0  0  0  0  0
    0.2330    2.9560    0.8200 C   0  0  1  0  0  0  0  0  0  0  0  0
    1.3800    3.9810    0.6590 C   0  0  0  0  0  0  0  0  0  0  0  0
    0.9140    5.1820   -0.0680 N   0  0  0  0  0  0  0  0  0  0  0  0
    0.2860    4.6150   -0.7760 N   0  0  0  0  0  0  0  0  0  0  0  0
   -0.1460    3.6130    0.0140 N   0  0  0  0  0  0  0  0  0  0  0  0
    0.9360    6.3890   -0.6650 C   0  0  0  0  0  0  0  0  0  0  0  0
    1.7200    4.2890    1.6530 H   0  0  0  0  0  0  0  0  0  0  0  0
    2.2420    3.5250    0.1490 H   0  0  0  0  0  0  0  0  0  0  0  0
   -0.7760    3.3890    0.9130 H   0  0  0  0  0  0  0  0  0  0  0  0
    0.4110    7.5000   -0.1620 C   0  0  0  0  0  0  0  0  0  0  0  0
    0.3360    8.8070   -0.9290 C   0  0  2  0  0  0  0  0  0  0  0  0
   -0.0730    7.4770    0.8150 H   0  0  0  0  0  0  0  0  0  0  0  0
    1.3660    6.5740   -1.6640 H   0  0  0  0  0  0  0  0  0  0  0  0
    1.0960    9.9740   -0.2690 C   0  0  0  0  0  0  0  0  0  0  0  0
    0.4050   11.2410   -0.6160 N   0  0  0  0  0  0  0  0  0  0  0  0
   -0.4310   10.5500   -0.8150 N   0  0  0  0  0  0  0  0  0  0  0  0
   -0.6800    9.2340   -0.8940 N   0  0  0  0  0  0  0  0  0  0  0  0
    0.6130   12.3100    0.3870 C   0  0  1  0  0  0  0  0  0  0  0  0
    1.1140    9.8270    0.8200 H   0  0  0  0  0  0  0  0  0  0  0  0
    2.1320    9.9970   -0.6210 H   0  0  0  0  0  0  0  0  0  0  0  0
    0.6290    8.6800   -1.9780 H   0  0  0  0  0  0  0  0  0  0  0  0
    1.5460   13.2920   -0.1270 O   0  0  0  0  0  0  0  0  0  0  0  0
   -0.3740   14.5400    0.2790 C   0  0  0  0  0  0  0  0  0  0  0  0
   -0.6870   13.0990    0.6720 C   0  0  0  0  0  0  0  0  0  0  0  0
    1.7660   15.7490   -0.4420 C   0  0  0  0  0  0  0  0  0  0  0  0
   -1.5500   12.7320    0.1120 H   0  0  0  0  0  0  0  0  0  0  0  0
   -0.7090   14.7220   -0.7460 H   0  0  0  0  0  0  0  0  0  0  0  0
   -0.8530   15.2560    0.9500 H   0  0  0  0  0  0  0  0  0  0  0  0
   -0.9180   13.0380    1.7380 H   0  0  0  0  0  0  0  0  0  0  0  0
    1.4790   14.7080    1.3920 H   0  0  0  0  0  0  0  0  0  0  0  0
    1.1570   14.6030    0.3520 C   0  0  2  0  0  0  0  0  0  0  0  0
    1.0200   11.8980    1.3240 H   0  0  0  0  0  0  0  0  0  0  0  0
    1.0540   16.8490   -0.4160 O   0  0  0  0  0  0  0  0  0  0  0  0
    2.8930   15.7230   -0.8890 O   0  0  0  0  0  0  0  0  0  0  0  0
    0.1960   16.6400    0.0000 H   0  0  0  0  0  0  0  0  0  0  0  0
  1  5  1  0  0  0  0
  2  1  1  0  0  0  0
  3  2  2  0  0  0  0
  4  2  1  0  0  0  0
  6  4  2  0  0  0  0
  7  6  1  0  0  0  0
  7 11  1  0  0  0  0
  7 15  1  1  0  0  0
  8  7  1  0  0  0  0
  8 13  1  0  0  0  0
  8 14  1  0  0  0  0
  9  8  1  0  0  0  0
 10  9  1  0  0  0  0
 11 10  2  0  0  0  0
 12  9  1  0  0  0  0
 12 19  1  0  0  0  0
 16 12  2  0  0  0  0
 16 18  1  0  0  0  0
 17 16  1  0  0  0  0
 17 23  1  0  0  0  0
 17 27  1  6  0  0  0
 20 17  1  0  0  0  0
 20 25  1  0  0  0  0
 20 26  1  0  0  0  0
 21 20  1  0  0  0  0
 22 21  1  0  0  0  0
 23 22  2  0  0  0  0
 24 21  1  0  0  0  0
 24 30  1  0  0  0  0
 24 38  1  1  0  0  0
 28 24  1  0  0  0  0
 29 37  1  0  0  0  0
 29 34  1  0  0  0  0
 30 29  1  0  0  0  0
 30 35  1  0  0  0  0
 31 37  1  0  0  0  0
 31 40  2  0  0  0  0
 32 30  1  0  0  0  0
 33 29  1  0  0  0  0
 37 28  1  0  0  0  0
 37 36  1  1  0  0  0
 39 31  1  0  0  0  0
 41 39  1  0  0  0  0
M  END
