
 OpenBabel07202119133D

 88 95  0  0  1  0  0  0  0  0999 V2000
    2.4660   -0.5200    0.2620 O   0  0  0  0  0  0  0  0  0  0  0  0
    1.2130   -0.8970    0.2000 C   0  0  0  0  0  0  0  0  0  0  0  0
    0.8470   -2.0070    0.5240 O   0  0  0  0  0  0  0  0  0  0  0  0
    0.2530    0.2200   -0.1580 C   0  0  1  0  0  0  0  0  0  0  0  0
    2.5030    0.4170    0.0000 H   0  0  0  0  0  0  0  0  0  0  0  0
    0.2420    1.3060    0.9390 C   0  0  0  0  0  0  0  0  0  0  0  0
   -0.5470    2.4650    0.4820 N   0  0  0  0  0  0  0  0  0  0  0  0
   -0.4810    2.1020   -0.5600 N   0  0  0  0  0  0  0  0  0  0  0  0
    0.1890    1.0000   -0.9350 N   0  0  0  0  0  0  0  0  0  0  0  0
   -0.4230    3.6470    1.3810 C   0  0  1  0  0  0  0  0  0  0  0  0
    1.2720    1.6160    1.1560 H   0  0  0  0  0  0  0  0  0  0  0  0
   -0.1860    0.9010    1.8600 H   0  0  0  0  0  0  0  0  0  0  0  0
   -0.7380   -0.2360   -0.2670 H   0  0  0  0  0  0  0  0  0  0  0  0
    0.9160    4.4010    1.2090 C   0  0  0  0  0  0  0  0  0  0  0  0
    0.8710    5.0330   -0.1240 N   0  0  0  0  0  0  0  0  0  0  0  0
   -0.1750    5.3170    0.1020 N   0  0  0  0  0  0  0  0  0  0  0  0
   -0.8910    4.5530    0.9490 N   0  0  0  0  0  0  0  0  0  0  0  0
    1.7950    4.3870   -1.0960 C   0  0  2  0  0  0  0  0  0  0  0  0
    1.0740    5.1480    2.0080 H   0  0  0  0  0  0  0  0  0  0  0  0
    1.7590    3.7080    1.2800 H   0  0  0  0  0  0  0  0  0  0  0  0
   -0.5970    3.3520    2.4260 H   0  0  0  0  0  0  0  0  0  0  0  0
    3.1410    5.1270   -1.0910 C   0  0  0  0  0  0  0  0  0  0  0  0
    2.8980    6.3500   -1.8910 N   0  0  0  0  0  0  0  0  0  0  0  0
    2.5770    5.6450   -2.6850 N   0  0  0  0  0  0  0  0  0  0  0  0
    1.8330    4.6440   -2.1700 N   0  0  0  0  0  0  0  0  0  0  0  0
    2.2890    7.4010   -1.2830 C   0  0  1  0  0  0  0  0  0  0  0  0
    3.4060    5.3930   -0.0630 H   0  0  0  0  0  0  0  0  0  0  0  0
    3.9910    4.5110   -1.4540 H   0  0  0  0  0  0  0  0  0  0  0  0
    1.8980    3.3120   -0.8950 H   0  0  0  0  0  0  0  0  0  0  0  0
    1.1200    7.9230   -1.6850 C   0  0  1  0  0  0  0  0  0  0  0  0
    0.6280    9.0070   -1.0870 C   0  0  0  0  0  0  0  0  0  0  0  0
    1.2470    9.6390   -0.0690 C   0  0  1  0  0  0  0  0  0  0  0  0
    2.3560    9.0120    0.3840 C   0  0  0  0  0  0  0  0  0  0  0  0
    2.8680    7.9480   -0.2190 C   0  0  0  0  0  0  0  0  0  0  0  0
    0.9590   10.9330    0.2620 C   0  0  2  0  0  0  0  0  0  0  0  0
   -0.2420    9.3930   -1.5820 H   0  0  0  0  0  0  0  0  0  0  0  0
    0.4340    7.4410   -2.7370 F   0  0  0  0  0  0  0  0  0  0  0  0
    3.8130    7.5560    0.1500 H   0  0  0  0  0  0  0  0  0  0  0  0
    2.9690    9.3630    1.2010 H   0  0  0  0  0  0  0  0  0  0  0  0
   -0.0390   11.6770   -0.2960 C   0  0  1  0  0  0  0  0  0  0  0  0
    0.2260   12.9610   -0.5720 C   0  0  0  0  0  0  0  0  0  0  0  0
    1.3580   13.5550   -0.1910 C   0  0  1  0  0  0  0  0  0  0  0  0
    2.1140   12.9020    0.6850 C   0  0  0  0  0  0  0  0  0  0  0  0
    1.9020   11.6250    0.9320 C   0  0  0  0  0  0  0  0  0  0  0  0
    1.8190   14.8640   -0.8280 C   0  0  2  0  0  0  0  0  0  0  0  0
   -0.4750   13.5050   -1.1980 H   0  0  0  0  0  0  0  0  0  0  0  0
   -1.4480   11.1840   -0.6660 C   0  0  0  0  0  0  0  0  0  0  0  0
    2.6750   11.1900    1.5460 H   0  0  0  0  0  0  0  0  0  0  0  0
    3.0100   13.3250    1.1170 H   0  0  0  0  0  0  0  0  0  0  0  0
    2.7570   15.7350    0.0180 C   0  0  0  0  0  0  0  0  0  0  0  0
    1.7280   16.5450    0.7790 C   0  0  2  0  0  0  0  0  0  0  0  0
    0.7980   16.9190   -0.3030 N   0  0  0  0  0  0  0  0  0  0  0  0
    0.6850   15.7510   -1.1710 N   0  0  0  0  0  0  0  0  0  0  0  0
    2.3520   17.7130    1.5760 C   0  0  1  0  0  0  0  0  0  0  0  0
   -0.1670   15.2930   -0.8540 H   0  0  0  0  0  0  0  0  0  0  0  0
   -0.1340   17.0760    0.0730 H   0  0  0  0  0  0  0  0  0  0  0  0
    3.3430   16.3720   -0.6500 H   0  0  0  0  0  0  0  0  0  0  0  0
    1.2040   15.8860    1.4780 H   0  0  0  0  0  0  0  0  0  0  0  0
    3.4590   15.2210    0.6690 H   0  0  0  0  0  0  0  0  0  0  0  0
    2.3460   14.5980   -1.7490 H   0  0  0  0  0  0  0  0  0  0  0  0
    3.2300   18.5070    0.7470 O   0  0  0  0  0  0  0  0  0  0  0  0
    1.1570   19.6790    0.9070 C   0  0  0  0  0  0  0  0  0  0  0  0
    1.2990   18.7030    2.0720 C   0  0  0  0  0  0  0  0  0  0  0  0
    3.4760   20.8790    0.4980 C   0  0  1  0  0  0  0  0  0  0  0  0
    1.6820   19.2290    2.9490 H   0  0  0  0  0  0  0  0  0  0  0  0
    0.8730   20.6650    1.2770 H   0  0  0  0  0  0  0  0  0  0  0  0
    0.3690   19.3610    0.2200 H   0  0  0  0  0  0  0  0  0  0  0  0
    0.3530   18.2210    2.3280 H   0  0  0  0  0  0  0  0  0  0  0  0
    2.4270   19.3990   -0.9010 H   0  0  0  0  0  0  0  0  0  0  0  0
    2.5460   19.6450    0.1690 C   0  0  1  0  0  0  0  0  0  0  0  0
    2.9300   17.3060    2.4100 H   0  0  0  0  0  0  0  0  0  0  0  0
    3.9920   21.9530   -0.5270 C   0  0  0  0  0  0  0  0  0  0  0  0
    2.8870   22.8770   -0.8760 N   0  0  0  0  0  0  0  0  0  0  0  0
    2.3080   22.0320   -1.2870 N   0  0  0  0  0  0  0  0  0  0  0  0
    2.7940   21.4290   -0.1800 N   0  0  0  0  0  0  0  0  0  0  0  0
    2.6000   24.0400   -0.2260 C   0  0  0  0  0  0  0  0  0  0  0  0
    4.5410   21.5480   -1.4130 H   0  0  0  0  0  0  0  0  0  0  0  0
    4.7650   22.5490   -0.0110 H   0  0  0  0  0  0  0  0  0  0  0  0
    3.2010   21.3380    1.4510 H   0  0  0  0  0  0  0  0  0  0  0  0
   -2.5860   12.1160   -0.1810 C   0  0  0  0  0  0  0  0  0  0  0  0
   -2.4950   12.3260    0.8870 H   0  0  0  0  0  0  0  0  0  0  0  0
   -3.5570   11.6430   -0.3500 H   0  0  0  0  0  0  0  0  0  0  0  0
   -2.5890   13.0640   -0.7230 H   0  0  0  0  0  0  0  0  0  0  0  0
   -1.6420   10.2170   -0.1930 H   0  0  0  0  0  0  0  0  0  0  0  0
   -1.5470   11.0680   -1.7470 H   0  0  0  0  0  0  0  0  0  0  0  0
    1.3660   24.0250    0.2240 O   0  0  0  0  0  0  0  0  0  0  0  0
    3.4510   24.7670    0.2460 O   0  0  0  0  0  0  0  0  0  0  0  0
    1.0620   23.1120    0.0000 H   0  0  0  0  0  0  0  0  0  0  0  0
  1  5  1  0  0  0  0
  2  1  1  0  0  0  0
  3  2  2  0  0  0  0
  4  2  1  0  0  0  0
  4  9  1  0  0  0  0
  4 13  1  1  0  0  0
  6  4  1  0  0  0  0
  6 11  1  0  0  0  0
  6 12  1  0  0  0  0
  7  6  1  0  0  0  0
  8  7  1  0  0  0  0
  9  8  2  0  0  0  0
 10  7  1  0  0  0  0
 10 17  1  0  0  0  0
 10 21  1  1  0  0  0
 14 10  1  0  0  0  0
 14 19  1  0  0  0  0
 14 20  1  0  0  0  0
 15 14  1  0  0  0  0
 16 15  1  0  0  0  0
 17 16  2  0  0  0  0
 18 15  1  0  0  0  0
 18 25  1  0  0  0  0
 18 29  1  1  0  0  0
 22 18  1  0  0  0  0
 22 27  1  0  0  0  0
 22 28  1  0  0  0  0
 23 22  1  0  0  0  0
 24 23  1  0  0  0  0
 25 24  2  0  0  0  0
 26 23  1  1  0  0  0
 26 34  5  0  0  0  0
 30 26  5  0  0  0  0
 30 31  5  0  0  0  0
 30 37  1  6  0  0  0
 31 36  1  0  0  0  0
 32 31  5  6  0  0  0
 32 35  1  0  0  0  0
 33 32  5  0  0  0  0
 33 39  1  0  0  0  0
 34 33  5  0  0  0  0
 34 38  1  0  0  0  0
 35 44  5  6  0  0  0
 40 35  5  0  0  0  0
 40 41  5  0  0  0  0
 40 47  1  6  0  0  0
 41 46  1  0  0  0  0
 42 41  5  6  0  0  0
 42 45  1  0  0  0  0
 43 42  5  0  0  0  0
 43 49  1  0  0  0  0
 44 43  5  0  0  0  0
 44 48  1  0  0  0  0
 45 53  1  0  0  0  0
 45 60  1  6  0  0  0
 47 84  1  0  0  0  0
 47 85  1  0  0  0  0
 50 45  1  0  0  0  0
 50 57  1  0  0  0  0
 50 59  1  0  0  0  0
 51 50  1  0  0  0  0
 51 58  1  1  0  0  0
 52 51  1  0  0  0  0
 53 52  1  0  0  0  0
 54 51  1  0  0  0  0
 54 63  1  0  0  0  0
 54 71  1  1  0  0  0
 55 53  1  0  0  0  0
 56 52  1  0  0  0  0
 61 54  1  0  0  0  0
 62 70  1  0  0  0  0
 62 67  1  0  0  0  0
 63 62  1  0  0  0  0
 63 68  1  0  0  0  0
 64 70  1  0  0  0  0
 64 75  1  0  0  0  0
 64 79  1  1  0  0  0
 65 63  1  0  0  0  0
 66 62  1  0  0  0  0
 70 61  1  0  0  0  0
 70 69  1  6  0  0  0
 72 64  1  0  0  0  0
 72 77  1  0  0  0  0
 72 78  1  0  0  0  0
 73 72  1  0  0  0  0
 74 73  1  0  0  0  0
 75 74  2  0  0  0  0
 76 73  1  0  0  0  0
 76 87  2  0  0  0  0
 80 81  1  0  0  0  0
 80 82  1  0  0  0  0
 80 83  1  0  0  0  0
 80 47  1  0  0  0  0
 86 76  1  0  0  0  0
 88 86  1  0  0  0  0
M  END
