
 OpenBabel07202118283D

 33 33  0  0  1  0  0  0  0  0999 V2000
    1.6060    0.0360   -0.0550 O   0  0  0  0  0  0  0  0  0  0  0  0
    0.6320    0.9260   -0.0140 C   0  0  0  0  0  0  0  0  0  0  0  0
   -0.4970    0.4820   -0.0750 O   0  0  0  0  0  0  0  0  0  0  0  0
    0.8450    2.3140    0.1350 N   0  0  0  0  0  0  0  0  0  0  0  0
    2.5030    0.4170    0.0000 H   0  0  0  0  0  0  0  0  0  0  0  0
    0.5110    3.5440    0.0610 N   0  0  0  0  0  0  0  0  0  0  0  0
    1.1670    4.8050    0.5480 N   0  0  0  0  0  0  0  0  0  0  0  0
    0.6710    5.9300    0.1510 N   0  0  0  0  0  0  0  0  0  0  0  0
    0.3110    7.3650   -0.1680 C   0  0  2  0  0  0  0  0  0  0  0  0
    1.4500    8.3890    0.1100 C   0  0  0  0  0  0  0  0  0  0  0  0
    0.8160    9.7480   -0.3760 C   0  0  1  0  0  0  0  0  0  0  0  0
   -0.6240    9.5590   -0.0630 N   0  0  0  0  0  0  0  0  0  0  0  0
   -0.8400    8.1470    0.3190 N   0  0  0  0  0  0  0  0  0  0  0  0
    1.3780   11.1690    0.0260 C   0  0  0  0  0  0  0  0  0  0  0  0
   -1.6980    7.8450   -0.1400 H   0  0  0  0  0  0  0  0  0  0  0  0
   -0.8520   10.0720    0.7830 H   0  0  0  0  0  0  0  0  0  0  0  0
    2.3460    8.1100   -0.4500 H   0  0  0  0  0  0  0  0  0  0  0  0
    0.9120    9.6880   -1.4640 H   0  0  0  0  0  0  0  0  0  0  0  0
    1.6870    8.3930    1.1780 H   0  0  0  0  0  0  0  0  0  0  0  0
    0.1570    7.3350   -1.2570 H   0  0  0  0  0  0  0  0  0  0  0  0
    0.6630   12.3500   -0.0420 C   0  0  0  0  0  0  0  0  0  0  0  0
    1.0750   13.7670    0.1160 N   0  0  0  0  0  0  0  0  0  0  0  0
   -0.3820   12.5900   -0.2790 H   0  0  0  0  0  0  0  0  0  0  0  0
    2.4430   11.1860    0.2560 H   0  0  0  0  0  0  0  0  0  0  0  0
    0.9280   15.0630    0.0920 N   0  0  0  0  0  0  0  0  0  0  0  0
    0.7500   16.3990    0.0600 C   0  0  0  0  0  0  0  0  0  0  0  0
    0.0450   17.5990    0.0320 C   0  0  0  0  0  0  0  0  0  0  0  0
    0.4200   19.1120   -0.0000 C   0  0  0  0  0  0  0  0  0  0  0  0
   -1.0300   17.4420    0.0370 H   0  0  0  0  0  0  0  0  0  0  0  0
    1.8510   16.3650    0.0560 H   0  0  0  0  0  0  0  0  0  0  0  0
   -0.5760   20.0500    0.0060 O   0  0  0  0  0  0  0  0  0  0  0  0
    1.5840   19.4560   -0.0250 O   0  0  0  0  0  0  0  0  0  0  0  0
   -0.4080   21.0970    0.0000 H   0  0  0  0  0  0  0  0  0  0  0  0
  1  5  1  0  0  0  0
  2  1  1  0  0  0  0
  3  2  2  0  0  0  0
  4  2  1  0  0  0  0
  6  4  2  0  0  0  0
  7  6  1  0  0  0  0
  8  7  2  0  0  0  0
  9  8  1  0  0  0  0
  9 13  1  0  0  0  0
  9 20  1  6  0  0  0
 10  9  1  0  0  0  0
 10 17  1  0  0  0  0
 10 19  1  0  0  0  0
 11 10  1  0  0  0  0
 11 18  1  6  0  0  0
 12 11  1  0  0  0  0
 13 12  1  0  0  0  0
 14 11  1  0  0  0  0
 14 24  1  0  0  0  0
 15 13  1  0  0  0  0
 16 12  1  0  0  0  0
 21 14  2  0  0  0  0
 21 23  1  0  0  0  0
 22 21  1  0  0  0  0
 25 22  2  0  0  0  0
 26 25  1  0  0  0  0
 26 30  1  0  0  0  0
 27 26  2  0  0  0  0
 27 29  1  0  0  0  0
 28 27  1  0  0  0  0
 28 32  2  0  0  0  0
 31 28  1  0  0  0  0
 33 31  1  0  0  0  0
M  END
