
 OpenBabel07202119143D

 35 35  0  0  1  0  0  0  0  0999 V2000
    1.2950    0.5110    0.0000 O   0  0  0  0  0  0  0  0  0  0  0  0
    0.0600    1.2950   -0.0000 C   0  0  0  0  0  0  0  0  0  0  0  0
   -1.0680    0.7740   -0.0000 O   0  0  0  0  0  0  0  0  0  0  0  0
    0.1750    2.7860   -0.0000 C   0  0  0  0  0  0  0  0  0  0  0  0
    2.5030    0.4170    0.0000 H   0  0  0  0  0  0  0  0  0  0  0  0
   -0.4470    3.9720   -0.0000 C   0  0  0  0  0  0  0  0  0  0  0  0
    0.3430    4.9590    0.0000 N   0  0  0  0  0  0  0  0  0  0  0  0
   -1.4500    4.3580   -0.0000 H   0  0  0  0  0  0  0  0  0  0  0  0
    1.1780    2.8670    0.0000 H   0  0  0  0  0  0  0  0  0  0  0  0
    0.0120    6.0950   -0.0030 N   0  0  0  0  0  0  0  0  0  0  0  0
    0.2450    7.2070    0.0010 C   0  0  0  0  0  0  0  0  0  0  0  0
   -0.2750    8.3030    0.0130 C   0  0  0  0  0  0  0  0  0  0  0  0
    0.6940    9.5120    0.0190 C   0  0  2  0  0  0  0  0  0  0  0  0
   -1.3720    7.9150    0.0010 H   0  0  0  0  0  0  0  0  0  0  0  0
    1.2830    7.0060    0.0010 H   0  0  0  0  0  0  0  0  0  0  0  0
    0.0030   10.5930    0.0190 C   0  0  0  0  0  0  0  0  0  0  0  0
    0.0270   12.6460    0.0010 C   0  0  0  0  0  0  0  0  0  0  0  0
    1.9080   13.6110   -0.0350 C   0  0  2  0  0  0  0  0  0  0  0  0
    3.5440   11.5690   -0.0010 C   0  0  2  0  0  0  0  0  0  0  0  0
    2.3180    9.6960    0.0130 C   0  0  2  0  0  0  0  0  0  0  0  0
    0.5110   14.0550   -0.0020 C   0  0  0  0  0  0  0  0  0  0  0  0
   -1.0560   12.9140    0.0020 H   0  0  0  0  0  0  0  0  0  0  0  0
   -1.1520    9.9310    0.0000 H   0  0  0  0  0  0  0  0  0  0  0  0
    1.8800    8.9110   -0.0030 O   0  0  0  0  0  0  0  0  0  0  0  0
    2.0120   11.6940    0.0000 C   0  0  0  0  0  0  0  0  0  0  0  0
    0.8370    9.9410    0.0000 H   0  0  0  0  0  0  0  0  0  0  0  0
    2.0120   11.6940    0.0000 C   0  0  0  0  0  0  0  0  0  0  0  0
    1.8050   11.9330    0.0780 H   0  0  0  0  0  0  0  0  0  0  0  0
    2.0110   11.6930    0.0000 H   0  0  0  0  0  0  0  0  0  0  0  0
   -1.4180   11.4520   -0.0360 H   0  0  0  0  0  0  0  0  0  0  0  0
    3.4170   11.0810   -0.0070 H   0  0  0  0  0  0  0  0  0  0  0  0
    3.5090   12.8970    0.1540 H   0  0  0  0  0  0  0  0  0  0  0  0
   -0.5750   15.0660    0.0030 O   0  0  0  0  0  0  0  0  0  0  0  0
    1.5410   14.6090    0.0010 O   0  0  0  0  0  0  0  0  0  0  0  0
   -1.3560   15.4140    0.0000 H   0  0  0  0  0  0  0  0  0  0  0  0
  1  5  1  0  0  0  0
  2  1  1  0  0  0  0
  3  2  2  0  0  0  0
  4  2  1  0  0  0  0
  4  9  1  0  0  0  0
  6  4  2  0  0  0  0
  6  8  1  0  0  0  0
  7  6  1  0  0  0  0
 10  7  2  0  0  0  0
 11 10  1  0  0  0  0
 11 15  1  0  0  0  0
 12 11  2  0  0  0  0
 12 14  1  0  0  0  0
 13 12  1  6  0  0  0
 13 20  5  0  0  0  0
 16 13  5  0  0  0  0
 16 17  5  0  0  0  0
 16 23  1  0  0  0  0
 17 22  1  0  0  0  0
 18 17  5  0  0  0  0
 18 21  1  1  0  0  0
 19 18  5  0  0  0  0
 19 25  1  1  0  0  0
 20 19  5  0  0  0  0
 20 24  1  6  0  0  0
 21 34  2  0  0  0  0
 24 26  1  0  0  0  0
 25 31  1  0  0  0  0
 25 32  1  0  0  0  0
 27 28  1  0  0  0  0
 27 29  1  0  0  0  0
 27 30  1  0  0  0  0
 27 25  1  0  0  0  0
 33 21  1  0  0  0  0
 35 33  1  0  0  0  0
M  END
