
 OpenBabel07202119143D

 10  9  0  0  0  0  0  0  0  0999 V2000
    1.5180    0.8250    0.0000 O   0  0  0  0  0  0  0  0  0  0  0  0
    0.8680    2.0650    0.0000 C   0  0  0  0  0  0  0  0  0  0  0  0
   -0.3020    1.7390    0.0000 O   0  0  0  0  0  0  0  0  0  0  0  0
    0.7190    3.6140   -0.0000 C   0  0  0  0  0  0  0  0  0  0  0  0
    2.5030    0.4170    0.0000 H   0  0  0  0  0  0  0  0  0  0  0  0
    0.0170    4.9000   -0.0000 C   0  0  0  0  0  0  0  0  0  0  0  0
   -0.4290    6.3980    0.0000 C   0  0  0  0  0  0  0  0  0  0  0  0
   -1.6170    7.1100   -0.0000 O   0  0  0  0  0  0  0  0  0  0  0  0
    0.5360    7.1330    0.0000 O   0  0  0  0  0  0  0  0  0  0  0  0
   -1.7260    8.1890    0.0000 H   0  0  0  0  0  0  0  0  0  0  0  0
  1  5  1  0  0  0  0
  2  1  1  0  0  0  0
  3  2  2  0  0  0  0
  4  2  1  0  0  0  0
  6  4  3  0  0  0  0
  7  6  1  0  0  0  0
  7  9  2  0  0  0  0
  8  7  1  0  0  0  0
 10  8  1  0  0  0  0
M  END
