
 OpenBabel07202119143D

 48 50  0  0  1  0  0  0  0  0999 V2000
    1.9160   -0.3220   -0.2540 O   0  0  0  0  0  0  0  0  0  0  0  0
    0.7350    0.2200   -0.2720 C   0  0  0  0  0  0  0  0  0  0  0  0
   -0.1890   -0.5650   -0.3180 O   0  0  0  0  0  0  0  0  0  0  0  0
    0.4880    1.6410   -0.1790 C   0  0  1  0  0  0  0  0  0  0  0  0
    2.5030    0.4170    0.0000 H   0  0  0  0  0  0  0  0  0  0  0  0
   -0.6500    2.1440   -0.7040 C   0  0  1  0  0  0  0  0  0  0  0  0
   -0.9010    3.4420   -0.6340 C   0  0  0  0  0  0  0  0  0  0  0  0
   -0.0600    4.3210   -0.0860 C   0  0  1  0  0  0  0  0  0  0  0  0
    1.0780    3.8270    0.4490 C   0  0  2  0  0  0  0  0  0  0  0  0
    1.3660    2.5000    0.4230 C   0  0  1  0  0  0  0  0  0  0  0  0
   -0.3870    5.6340   -0.1430 C   0  0  2  0  0  0  0  0  0  0  0  0
   -1.8050    3.7890   -1.1310 H   0  0  0  0  0  0  0  0  0  0  0  0
   -1.8630    1.2660   -1.5850 Cl  0  0  0  0  0  0  0  0  0  0  0  0
    2.6560    2.0030    1.1250 C   0  0  0  0  0  0  0  0  0  0  0  0
    2.1600    4.9950    1.5170 Br  0  0  0  0  0  0  0  0  0  0  0  0
   -1.6450    6.0760    0.0690 C   0  0  2  0  0  0  0  0  0  0  0  0
   -1.9440    7.3770   -0.0270 C   0  0  2  0  0  0  0  0  0  0  0  0
   -1.0030    8.2710   -0.3680 C   0  0  1  0  0  0  0  0  0  0  0  0
    0.2450    7.8450   -0.5980 C   0  0  1  0  0  0  0  0  0  0  0  0
    0.5330    6.5480   -0.4840 C   0  0  0  0  0  0  0  0  0  0  0  0
   -1.3530    9.7460   -0.5080 C   0  0  2  0  0  0  0  0  0  0  0  0
   -3.5690    7.8690    0.3170 Cl  0  0  0  0  0  0  0  0  0  0  0  0
   -2.6210    5.2470    0.4870 F   0  0  0  0  0  0  0  0  0  0  0  0
    1.5350    6.2290   -0.7540 H   0  0  0  0  0  0  0  0  0  0  0  0
    2.4300    8.7550   -0.1980 C   0  0  0  0  0  0  0  0  0  0  0  0
   -0.5920   10.6620    0.4740 C   0  0  0  0  0  0  0  0  0  0  0  0
   -1.2280   11.9890    0.5190 N   0  0  0  0  0  0  0  0  0  0  0  0
   -2.2230   11.5350    0.3730 N   0  0  0  0  0  0  0  0  0  0  0  0
   -2.1400   10.5180   -0.5040 N   0  0  0  0  0  0  0  0  0  0  0  0
   -1.2340   13.2100   -0.1600 C   0  0  0  0  0  0  0  0  0  0  0  0
   -0.5790   10.2110    1.4750 H   0  0  0  0  0  0  0  0  0  0  0  0
    0.4460   10.7890    0.1530 H   0  0  0  0  0  0  0  0  0  0  0  0
   -1.2150   10.0810   -1.5400 H   0  0  0  0  0  0  0  0  0  0  0  0
   -0.5390   14.2020   -0.0080 C   0  0  0  0  0  0  0  0  0  0  0  0
    0.2420   15.4080    0.1720 C   0  0  0  0  0  0  0  0  0  0  0  0
    2.3480    1.2550    2.4410 C   0  0  0  0  0  0  0  0  0  0  0  0
    3.2760    0.9510    2.9300 H   0  0  0  0  0  0  0  0  0  0  0  0
    1.7950    1.9020    3.1250 H   0  0  0  0  0  0  0  0  0  0  0  0
    1.7500    0.3580    2.2710 H   0  0  0  0  0  0  0  0  0  0  0  0
    3.3690    2.7830    1.3700 H   0  0  0  0  0  0  0  0  0  0  0  0
    3.2800    1.4050    0.4650 H   0  0  0  0  0  0  0  0  0  0  0  0
    3.0030    7.8370   -0.3540 H   0  0  0  0  0  0  0  0  0  0  0  0
    3.0350    9.6100   -0.5130 H   0  0  0  0  0  0  0  0  0  0  0  0
    2.1760    8.8620    0.8600 H   0  0  0  0  0  0  0  0  0  0  0  0
    1.2140    8.7300   -0.9900 O   0  0  0  0  0  0  0  0  0  0  0  0
   -0.6630   16.3200   -0.0390 O   0  0  0  0  0  0  0  0  0  0  0  0
    1.4100   15.5190   -0.1410 O   0  0  0  0  0  0  0  0  0  0  0  0
   -1.5180   15.8510    0.0000 H   0  0  0  0  0  0  0  0  0  0  0  0
  1  5  1  0  0  0  0
  2  1  1  0  0  0  0
  3  2  2  0  0  0  0
  4  2  1  1  0  0  0
  4 10  5  0  0  0  0
  6  4  5  0  0  0  0
  6  7  5  0  0  0  0
  6 13  1  6  0  0  0
  7 12  1  0  0  0  0
  8  7  5  6  0  0  0
  8 11  1  0  0  0  0
  9  8  5  0  0  0  0
  9 15  1  1  0  0  0
 10  9  5  0  0  0  0
 10 14  1  1  0  0  0
 11 20  5  6  0  0  0
 14 40  1  0  0  0  0
 14 41  1  0  0  0  0
 16 11  5  0  0  0  0
 16 17  5  0  0  0  0
 16 23  1  1  0  0  0
 17 22  1  1  0  0  0
 18 17  5  0  0  0  0
 18 21  1  6  0  0  0
 19 18  5  0  0  0  0
 19 45  1  6  0  0  0
 20 19  5  0  0  0  0
 20 24  1  0  0  0  0
 21 29  1  0  0  0  0
 21 33  1  6  0  0  0
 25 42  1  0  0  0  0
 25 43  1  0  0  0  0
 25 44  1  0  0  0  0
 25 45  1  0  0  0  0
 26 21  1  0  0  0  0
 26 31  1  0  0  0  0
 26 32  1  0  0  0  0
 27 26  1  0  0  0  0
 28 27  1  0  0  0  0
 29 28  2  0  0  0  0
 30 27  1  0  0  0  0
 34 30  3  0  0  0  0
 35 34  1  0  0  0  0
 35 47  2  0  0  0  0
 36 37  1  0  0  0  0
 36 38  1  0  0  0  0
 36 39  1  0  0  0  0
 36 14  1  0  0  0  0
 46 35  1  0  0  0  0
 48 46  1  0  0  0  0
M  END
