
 OpenBabel07202118273D

 40 42  0  0  1  0  0  0  0  0999 V2000
    2.6500    1.3000    0.4600 O   0  0  0  0  0  0  0  0  0  0  0  0
    2.0620    2.3420   -0.1220 C   0  0  0  0  0  0  0  0  0  0  0  0
    1.3920    2.2170   -1.1270 O   0  0  0  0  0  0  0  0  0  0  0  0
    2.2650    3.6980    0.6010 C   0  0  1  0  0  0  0  0  0  0  0  0
    2.5030    0.4170    0.0000 H   0  0  0  0  0  0  0  0  0  0  0  0
    1.6300    4.9910   -0.0490 C   0  0  0  0  0  0  0  0  0  0  0  0
    1.9760    6.2390    0.7390 N   0  0  0  0  0  0  0  0  0  0  0  0
    1.8460    5.5790    1.6160 N   0  0  0  0  0  0  0  0  0  0  0  0
    2.1180    4.2650    1.5380 N   0  0  0  0  0  0  0  0  0  0  0  0
    1.0730    7.4630    0.7800 C   0  0  1  0  0  0  0  0  0  0  0  0
    0.5410    4.8540   -0.1550 H   0  0  0  0  0  0  0  0  0  0  0  0
    2.0280    5.1070   -1.0620 H   0  0  0  0  0  0  0  0  0  0  0  0
    3.3420    3.8240    0.7460 H   0  0  0  0  0  0  0  0  0  0  0  0
    1.6660    8.7150    0.2890 O   0  0  0  0  0  0  0  0  0  0  0  0
   -0.6200    8.9080   -0.1740 C   0  0  0  0  0  0  0  0  0  0  0  0
   -0.2430    7.4200   -0.0110 C   0  0  0  0  0  0  0  0  0  0  0  0
    0.8650   11.0270   -0.5700 C   0  0  2  0  0  0  0  0  0  0  0  0
   -0.0930    6.9710   -0.9950 H   0  0  0  0  0  0  0  0  0  0  0  0
   -0.8570    9.1080   -1.2220 H   0  0  0  0  0  0  0  0  0  0  0  0
   -1.4960    9.1570    0.4300 H   0  0  0  0  0  0  0  0  0  0  0  0
   -1.0150    6.8650    0.5260 H   0  0  0  0  0  0  0  0  0  0  0  0
    0.4390   10.0290    1.3440 H   0  0  0  0  0  0  0  0  0  0  0  0
    0.6050    9.7350    0.3040 C   0  0  2  0  0  0  0  0  0  0  0  0
    0.8370    7.6650    1.8380 H   0  0  0  0  0  0  0  0  0  0  0  0
    1.7500   12.1470    0.0510 C   0  0  0  0  0  0  0  0  0  0  0  0
    0.7880   13.2550    0.5790 C   0  0  2  0  0  0  0  0  0  0  0  0
   -0.5580   12.7550    0.2360 N   0  0  0  0  0  0  0  0  0  0  0  0
   -0.3970   11.7580   -0.8250 N   0  0  0  0  0  0  0  0  0  0  0  0
    0.9930   14.6420   -0.0010 N   0  0  0  0  0  0  0  0  0  0  0  0
   -0.3500   12.3210   -1.6730 H   0  0  0  0  0  0  0  0  0  0  0  0
   -0.9830   12.2370    1.0010 H   0  0  0  0  0  0  0  0  0  0  0  0
    2.4040   12.5620   -0.7210 H   0  0  0  0  0  0  0  0  0  0  0  0
    0.8580   13.3330    1.6750 H   0  0  0  0  0  0  0  0  0  0  0  0
    2.3800   11.7520    0.8510 H   0  0  0  0  0  0  0  0  0  0  0  0
    1.2870   10.7060   -1.5260 H   0  0  0  0  0  0  0  0  0  0  0  0
    1.0210   15.9390    0.0190 N   0  0  0  0  0  0  0  0  0  0  0  0
    0.9710   17.3010    0.4350 C   0  0  0  0  0  0  0  0  0  0  0  0
    0.6900   18.2710   -0.4240 O   0  0  0  0  0  0  0  0  0  0  0  0
    1.2060   17.6170    1.5830 O   0  0  0  0  0  0  0  0  0  0  0  0
    0.6980   19.1830    0.0000 H   0  0  0  0  0  0  0  0  0  0  0  0
  1  5  1  0  0  0  0
  2  1  1  0  0  0  0
  3  2  2  0  0  0  0
  4  2  1  0  0  0  0
  4  9  1  0  0  0  0
  4 13  1  6  0  0  0
  6  4  1  0  0  0  0
  6 11  1  0  0  0  0
  6 12  1  0  0  0  0
  7  6  1  0  0  0  0
  8  7  1  0  0  0  0
  9  8  2  0  0  0  0
 10  7  1  0  0  0  0
 10 16  1  0  0  0  0
 10 24  1  1  0  0  0
 14 10  1  0  0  0  0
 15 23  1  0  0  0  0
 15 20  1  0  0  0  0
 16 15  1  0  0  0  0
 16 21  1  0  0  0  0
 17 23  1  0  0  0  0
 17 28  1  0  0  0  0
 17 35  1  6  0  0  0
 18 16  1  0  0  0  0
 19 15  1  0  0  0  0
 23 14  1  0  0  0  0
 23 22  1  1  0  0  0
 25 17  1  0  0  0  0
 25 32  1  0  0  0  0
 25 34  1  0  0  0  0
 26 25  1  0  0  0  0
 26 33  1  1  0  0  0
 27 26  1  0  0  0  0
 28 27  1  0  0  0  0
 29 26  1  0  0  0  0
 30 28  1  0  0  0  0
 31 27  1  0  0  0  0
 36 29  2  0  0  0  0
 37 36  1  0  0  0  0
 37 39  2  0  0  0  0
 38 37  1  0  0  0  0
 40 38  1  0  0  0  0
M  END
