
 OpenBabel07202118273D

 27 27  0  0  1  0  0  0  0  0999 V2000
    1.5970    0.7670    0.2420 O   0  0  0  0  0  0  0  0  0  0  0  0
    1.2300    2.0620    0.2400 C   0  0  0  0  0  0  0  0  0  0  0  0
    0.0640    2.1480    0.5650 O   0  0  0  0  0  0  0  0  0  0  0  0
    1.8190    3.3380   -0.0420 N   0  0  0  0  0  0  0  0  0  0  0  0
    2.5030    0.4170    0.0000 H   0  0  0  0  0  0  0  0  0  0  0  0
    1.5920    4.6090   -0.0530 N   0  0  0  0  0  0  0  0  0  0  0  0
    1.9410    6.0720   -0.3170 N   0  0  0  0  0  0  0  0  0  0  0  0
    1.1340    7.0350    0.0240 N   0  0  0  0  0  0  0  0  0  0  0  0
    0.4030    8.3520    0.3180 C   0  0  1  0  0  0  0  0  0  0  0  0
    1.2080    9.6720    0.0970 C   0  0  0  0  0  0  0  0  0  0  0  0
    0.1330   10.7890    0.3260 C   0  0  2  0  0  0  0  0  0  0  0  0
   -1.0260   10.1940   -0.3700 N   0  0  0  0  0  0  0  0  0  0  0  0
   -0.9010    8.7230   -0.2860 N   0  0  0  0  0  0  0  0  0  0  0  0
    0.4450   12.2610   -0.0990 C   0  0  0  0  0  0  0  0  0  0  0  0
   -1.6850    8.3950    0.2770 H   0  0  0  0  0  0  0  0  0  0  0  0
   -0.9750   10.3750   -1.3720 H   0  0  0  0  0  0  0  0  0  0  0  0
    2.0410    9.7610    0.7970 H   0  0  0  0  0  0  0  0  0  0  0  0
   -0.0940   10.7950    1.3960 H   0  0  0  0  0  0  0  0  0  0  0  0
    1.5940    9.7140   -0.9260 H   0  0  0  0  0  0  0  0  0  0  0  0
    0.1970    8.3070    1.3990 H   0  0  0  0  0  0  0  0  0  0  0  0
   -0.2970   13.3690    0.2190 C   0  0  0  0  0  0  0  0  0  0  0  0
    0.0370   14.8100   -0.1580 C   0  0  0  0  0  0  0  0  0  0  0  0
   -1.2110   13.2450    0.8000 H   0  0  0  0  0  0  0  0  0  0  0  0
    1.3600   12.3870   -0.6730 H   0  0  0  0  0  0  0  0  0  0  0  0
   -0.7980   15.7720    0.2510 O   0  0  0  0  0  0  0  0  0  0  0  0
    1.0360   15.0890   -0.7880 O   0  0  0  0  0  0  0  0  0  0  0  0
   -0.5530   16.7310    0.0000 H   0  0  0  0  0  0  0  0  0  0  0  0
  1  5  1  0  0  0  0
  2  1  1  0  0  0  0
  3  2  2  0  0  0  0
  4  2  1  0  0  0  0
  6  4  2  0  0  0  0
  7  6  1  0  0  0  0
  8  7  2  0  0  0  0
  9  8  1  0  0  0  0
  9 13  1  0  0  0  0
  9 20  1  1  0  0  0
 10  9  1  0  0  0  0
 10 17  1  0  0  0  0
 10 19  1  0  0  0  0
 11 10  1  0  0  0  0
 11 18  1  1  0  0  0
 12 11  1  0  0  0  0
 13 12  1  0  0  0  0
 14 11  1  0  0  0  0
 14 24  1  0  0  0  0
 15 13  1  0  0  0  0
 16 12  1  0  0  0  0
 21 14  2  0  0  0  0
 21 23  1  0  0  0  0
 22 21  1  0  0  0  0
 22 26  2  0  0  0  0
 25 22  1  0  0  0  0
 27 25  1  0  0  0  0
M  END
