
 OpenBabel07202119143D

 48 50  0  0  1  0  0  0  0  0999 V2000
    2.0950    1.2540    0.3990 O   0  0  0  0  0  0  0  0  0  0  0  0
    2.1900    2.3350   -0.3730 C   0  0  0  0  0  0  0  0  0  0  0  0
    2.6550    2.2480   -1.4900 O   0  0  0  0  0  0  0  0  0  0  0  0
    1.3460    3.5700    0.0600 C   0  0  1  0  0  0  0  0  0  0  0  0
    2.5030    0.4170    0.0000 H   0  0  0  0  0  0  0  0  0  0  0  0
    2.0600    4.9770    0.1940 C   0  0  0  0  0  0  0  0  0  0  0  0
    1.2160    6.1550   -0.2660 N   0  0  0  0  0  0  0  0  0  0  0  0
    0.5630    5.3040   -0.5310 N   0  0  0  0  0  0  0  0  0  0  0  0
    0.3860    4.1120    0.0650 N   0  0  0  0  0  0  0  0  0  0  0  0
    1.0790    7.3880    0.6150 C   0  0  1  0  0  0  0  0  0  0  0  0
    2.9790    4.9550   -0.4050 H   0  0  0  0  0  0  0  0  0  0  0  0
    2.3640    5.1220    1.2370 H   0  0  0  0  0  0  0  0  0  0  0  0
    0.7990    3.3160    0.9740 H   0  0  0  0  0  0  0  0  0  0  0  0
    2.0070    8.6190    0.3570 C   0  0  0  0  0  0  0  0  0  0  0  0
    1.1870    9.8100    0.9540 C   0  0  2  0  0  0  0  0  0  0  0  0
   -0.1710    9.4650    0.4900 N   0  0  0  0  0  0  0  0  0  0  0  0
   -0.2600    7.9950    0.4180 N   0  0  0  0  0  0  0  0  0  0  0  0
    1.5780   11.2820    0.6270 C   0  0  0  0  0  0  0  0  0  0  0  0
   -0.9260    7.7020    1.1300 H   0  0  0  0  0  0  0  0  0  0  0  0
   -0.3020    9.7530   -0.4790 H   0  0  0  0  0  0  0  0  0  0  0  0
    2.9780    8.5020    0.8470 H   0  0  0  0  0  0  0  0  0  0  0  0
    1.1990    9.6930    2.0420 H   0  0  0  0  0  0  0  0  0  0  0  0
    2.1630    8.7610   -0.7160 H   0  0  0  0  0  0  0  0  0  0  0  0
    1.1450    7.0830    1.6680 H   0  0  0  0  0  0  0  0  0  0  0  0
    1.1060   12.3710    1.2790 C   0  0  0  0  0  0  0  0  0  0  0  0
    1.4900   13.6920    0.9760 C   0  0  1  0  0  0  0  0  0  0  0  0
    0.4030   12.2180    2.0940 H   0  0  0  0  0  0  0  0  0  0  0  0
    2.2920   11.4100   -0.1850 H   0  0  0  0  0  0  0  0  0  0  0  0
    0.3600   14.3290    0.4570 C   0  0  0  0  0  0  0  0  0  0  0  0
    0.2380   15.6710    0.4860 C   0  0  0  0  0  0  0  0  0  0  0  0
    1.2070   16.4950    1.0300 C   0  0  2  0  0  0  0  0  0  0  0  0
    1.8690   15.7820    2.0140 C   0  0  0  0  0  0  0  0  0  0  0  0
    2.2380   14.4970    1.8470 C   0  0  2  0  0  0  0  0  0  0  0  0
    1.4170   17.8590    0.8140 C   0  0  0  0  0  0  0  0  0  0  0  0
   -0.6630   16.1260    0.0770 H   0  0  0  0  0  0  0  0  0  0  0  0
   -0.4450   13.7440    0.0130 H   0  0  0  0  0  0  0  0  0  0  0  0
    2.9310   14.1680    0.7460 O   0  0  0  0  0  0  0  0  0  0  0  0
    2.0060   16.2420    2.9910 H   0  0  0  0  0  0  0  0  0  0  0  0
    0.5480   18.9210    0.8160 C   0  0  0  0  0  0  0  0  0  0  0  0
    0.8660   20.3420    0.5730 C   0  0  0  0  0  0  0  0  0  0  0  0
   -0.5040   18.7340    1.0120 H   0  0  0  0  0  0  0  0  0  0  0  0
    2.4530   18.1200    0.6110 H   0  0  0  0  0  0  0  0  0  0  0  0
    0.7090   21.7380    0.4060 C   0  0  0  0  0  0  0  0  0  0  0  0
    0.9140   23.2120    0.2160 C   0  0  0  0  0  0  0  0  0  0  0  0
    2.3400   14.3530    0.0000 H   0  0  0  0  0  0  0  0  0  0  0  0
   -0.0360   24.1460    0.1300 O   0  0  0  0  0  0  0  0  0  0  0  0
    2.0630   23.5920    0.1330 O   0  0  0  0  0  0  0  0  0  0  0  0
    0.2920   25.1020    0.0000 H   0  0  0  0  0  0  0  0  0  0  0  0
  1  5  1  0  0  0  0
  2  1  1  0  0  0  0
  3  2  2  0  0  0  0
  4  2  1  0  0  0  0
  4  9  1  0  0  0  0
  4 13  1  1  0  0  0
  6  4  1  0  0  0  0
  6 11  1  0  0  0  0
  6 12  1  0  0  0  0
  7  6  1  0  0  0  0
  8  7  1  0  0  0  0
  9  8  2  0  0  0  0
 10  7  1  0  0  0  0
 10 17  1  0  0  0  0
 10 24  1  1  0  0  0
 14 10  1  0  0  0  0
 14 21  1  0  0  0  0
 14 23  1  0  0  0  0
 15 14  1  0  0  0  0
 15 22  1  1  0  0  0
 16 15  1  0  0  0  0
 17 16  1  0  0  0  0
 18 15  1  0  0  0  0
 18 28  1  0  0  0  0
 19 17  1  0  0  0  0
 20 16  1  0  0  0  0
 25 18  2  0  0  0  0
 25 27  1  0  0  0  0
 26 25  1  1  0  0  0
 26 33  5  0  0  0  0
 29 26  5  0  0  0  0
 29 30  5  0  0  0  0
 29 36  1  0  0  0  0
 30 35  1  0  0  0  0
 31 30  5  0  0  0  0
 31 34  1  1  0  0  0
 32 31  5  0  0  0  0
 32 38  1  0  0  0  0
 33 32  5  0  0  0  0
 33 37  1  6  0  0  0
 34 42  1  0  0  0  0
 37 45  1  0  0  0  0
 39 34  2  0  0  0  0
 39 41  1  0  0  0  0
 40 39  1  0  0  0  0
 43 40  3  0  0  0  0
 44 43  1  0  0  0  0
 44 47  2  0  0  0  0
 46 44  1  0  0  0  0
 48 46  1  0  0  0  0
M  END
