
 OpenBabel07202119103D

 68 72  0  0  1  0  0  0  0  0999 V2000
    2.2240    1.2290   -0.4880 O   0  0  0  0  0  0  0  0  0  0  0  0
    1.9820    2.2420    0.3240 C   0  0  0  0  0  0  0  0  0  0  0  0
    1.9680    2.1020    1.5290 O   0  0  0  0  0  0  0  0  0  0  0  0
    1.2540    3.3790   -0.4030 C   0  0  2  0  0  0  0  0  0  0  0  0
    2.5030    0.4170    0.0000 H   0  0  0  0  0  0  0  0  0  0  0  0
    1.5760    4.7810   -0.0860 O   0  0  0  0  0  0  0  0  0  0  0  0
   -0.7260    4.7660   -0.5230 C   0  0  0  0  0  0  0  0  0  0  0  0
   -0.2740    3.3270   -0.2260 C   0  0  0  0  0  0  0  0  0  0  0  0
    0.4740    7.0920   -0.8390 C   0  0  2  0  0  0  0  0  0  0  0  0
   -0.5410    3.0530    0.7980 H   0  0  0  0  0  0  0  0  0  0  0  0
   -1.4310    4.8020   -1.3560 H   0  0  0  0  0  0  0  0  0  0  0  0
   -1.2130    5.1680    0.3700 H   0  0  0  0  0  0  0  0  0  0  0  0
   -0.7300    2.6110   -0.9130 H   0  0  0  0  0  0  0  0  0  0  0  0
    0.8160    5.2860   -1.9000 H   0  0  0  0  0  0  0  0  0  0  0  0
    0.5820    5.5190   -0.8570 C   0  0  1  0  0  0  0  0  0  0  0  0
    1.4770    3.2380   -1.4650 H   0  0  0  0  0  0  0  0  0  0  0  0
    1.6020    7.9570   -0.4830 O   0  0  0  0  0  0  0  0  0  0  0  0
   -0.3790    9.2190   -0.1480 C   0  0  0  0  0  0  0  0  0  0  0  0
   -0.6770    7.7180   -0.0420 C   0  0  0  0  0  0  0  0  0  0  0  0
    1.7520   10.5150   -0.1780 C   0  0  0  0  0  0  0  0  0  0  0  0
   -0.6460    7.3970    1.0020 H   0  0  0  0  0  0  0  0  0  0  0  0
   -0.4720    9.6890    0.8360 H   0  0  0  0  0  0  0  0  0  0  0  0
   -1.0730    9.7090   -0.8350 H   0  0  0  0  0  0  0  0  0  0  0  0
   -1.6530    7.4790   -0.4720 H   0  0  0  0  0  0  0  0  0  0  0  0
    1.0010    9.4390   -1.7890 H   0  0  0  0  0  0  0  0  0  0  0  0
    1.0590    9.3070   -0.7050 C   0  0  1  0  0  0  0  0  0  0  0  0
    0.2610    7.3270   -1.8870 H   0  0  0  0  0  0  0  0  0  0  0  0
    2.0760   11.5940    0.2040 C   0  0  0  0  0  0  0  0  0  0  0  0
    2.2260   12.9740    0.7380 C   0  0  1  0  0  0  0  0  0  0  0  0
    3.1220   13.9940   -0.0050 C   0  0  0  0  0  0  0  0  0  0  0  0
    2.5670   15.3280    0.5550 C   0  0  2  0  0  0  0  0  0  0  0  0
    1.1140   15.0860    0.5500 N   0  0  0  0  0  0  0  0  0  0  0  0
    0.9140   13.6540    0.7870 N   0  0  0  0  0  0  0  0  0  0  0  0
    2.8670   16.6320   -0.1870 C   0  0  0  0  0  0  0  0  0  0  0  0
    0.4630   13.5650    1.6940 H   0  0  0  0  0  0  0  0  0  0  0  0
    0.7380   15.2210   -0.3880 H   0  0  0  0  0  0  0  0  0  0  0  0
    4.1800   13.8590    0.2350 H   0  0  0  0  0  0  0  0  0  0  0  0
    2.8940   15.4210    1.5950 H   0  0  0  0  0  0  0  0  0  0  0  0
    2.9810   13.9320   -1.0870 H   0  0  0  0  0  0  0  0  0  0  0  0
    2.5940   12.8930    1.7650 H   0  0  0  0  0  0  0  0  0  0  0  0
    2.8780   17.8220    0.4230 C   0  0  0  0  0  0  0  0  0  0  0  0
    2.7940   19.1770   -0.2820 C   0  0  2  0  0  0  0  0  0  0  0  0
    2.7650   17.8620    1.5040 H   0  0  0  0  0  0  0  0  0  0  0  0
    2.9040   16.5730   -1.2730 H   0  0  0  0  0  0  0  0  0  0  0  0
    3.7260   20.1850    0.2310 O   0  0  0  0  0  0  0  0  0  0  0  0
    1.6640   21.3060   -0.1940 C   0  0  0  0  0  0  0  0  0  0  0  0
    1.4150   19.8100   -0.0450 C   0  0  0  0  0  0  0  0  0  0  0  0
    3.9090   22.6170   -0.4380 C   0  0  2  0  0  0  0  0  0  0  0  0
    0.6690   19.4480   -0.7560 H   0  0  0  0  0  0  0  0  0  0  0  0
    1.5900   21.5740   -1.2510 H   0  0  0  0  0  0  0  0  0  0  0  0
    0.9390   21.8960    0.3710 H   0  0  0  0  0  0  0  0  0  0  0  0
    1.0680   19.5970    0.9700 H   0  0  0  0  0  0  0  0  0  0  0  0
    3.0590   21.7660    1.3980 H   0  0  0  0  0  0  0  0  0  0  0  0
    3.1030   21.5140    0.3340 C   0  0  2  0  0  0  0  0  0  0  0  0
    2.9680   19.0730   -1.3580 H   0  0  0  0  0  0  0  0  0  0  0  0
    4.3800   23.9020    0.3250 C   0  0  0  0  0  0  0  0  0  0  0  0
    3.5120   25.0720    0.0180 N   0  0  0  0  0  0  0  0  0  0  0  0
    2.6040   24.5210   -0.2680 N   0  0  0  0  0  0  0  0  0  0  0  0
    3.3520   23.5180   -0.7700 N   0  0  0  0  0  0  0  0  0  0  0  0
    3.9180   26.3400    0.1780 N   0  0  0  0  0  0  0  0  0  0  0  0
    5.4160   24.1400    0.0350 H   0  0  0  0  0  0  0  0  0  0  0  0
    4.3980   23.7140    1.4070 H   0  0  0  0  0  0  0  0  0  0  0  0
    3.6550   22.7440   -1.4950 H   0  0  0  0  0  0  0  0  0  0  0  0
    3.6740   27.6040    0.1190 N   0  0  0  0  0  0  0  0  0  0  0  0
    3.7740   29.0060    0.1560 C   0  0  0  0  0  0  0  0  0  0  0  0
    2.6580   29.6740   -0.0220 O   0  0  0  0  0  0  0  0  0  0  0  0
    4.8220   29.6070    0.3030 O   0  0  0  0  0  0  0  0  0  0  0  0
    2.8490   30.6410    0.0000 H   0  0  0  0  0  0  0  0  0  0  0  0
  1  5  1  0  0  0  0
  2  1  1  0  0  0  0
  3  2  2  0  0  0  0
  4  2  1  0  0  0  0
  4  8  1  0  0  0  0
  4 16  1  6  0  0  0
  6  4  1  0  0  0  0
  7 15  1  0  0  0  0
  7 12  1  0  0  0  0
  8  7  1  0  0  0  0
  8 13  1  0  0  0  0
  9 15  1  0  0  0  0
  9 19  1  0  0  0  0
  9 27  1  6  0  0  0
 10  8  1  0  0  0  0
 11  7  1  0  0  0  0
 15  6  1  0  0  0  0
 15 14  1  6  0  0  0
 17  9  1  0  0  0  0
 18 26  1  0  0  0  0
 18 23  1  0  0  0  0
 19 18  1  0  0  0  0
 19 24  1  0  0  0  0
 20 26  1  0  0  0  0
 21 19  1  0  0  0  0
 22 18  1  0  0  0  0
 26 17  1  0  0  0  0
 26 25  1  6  0  0  0
 28 20  3  0  0  0  0
 29 28  1  0  0  0  0
 29 33  1  0  0  0  0
 29 40  1  1  0  0  0
 30 29  1  0  0  0  0
 30 37  1  0  0  0  0
 30 39  1  0  0  0  0
 31 30  1  0  0  0  0
 31 38  1  1  0  0  0
 32 31  1  0  0  0  0
 33 32  1  0  0  0  0
 34 31  1  0  0  0  0
 34 44  1  0  0  0  0
 35 33  1  0  0  0  0
 36 32  1  0  0  0  0
 41 34  2  0  0  0  0
 41 43  1  0  0  0  0
 42 41  1  0  0  0  0
 42 47  1  0  0  0  0
 42 55  1  6  0  0  0
 45 42  1  0  0  0  0
 46 54  1  0  0  0  0
 46 51  1  0  0  0  0
 47 46  1  0  0  0  0
 47 52  1  0  0  0  0
 48 54  1  0  0  0  0
 48 59  1  0  0  0  0
 48 63  1  6  0  0  0
 49 47  1  0  0  0  0
 50 46  1  0  0  0  0
 54 45  1  0  0  0  0
 54 53  1  1  0  0  0
 56 48  1  0  0  0  0
 56 61  1  0  0  0  0
 56 62  1  0  0  0  0
 57 56  1  0  0  0  0
 58 57  1  0  0  0  0
 59 58  2  0  0  0  0
 60 57  1  0  0  0  0
 64 60  2  0  0  0  0
 65 64  1  0  0  0  0
 65 67  2  0  0  0  0
 66 65  1  0  0  0  0
 68 66  1  0  0  0  0
M  END
