
 OpenBabel07202119143D

 36 37  0  0  1  0  0  0  0  0999 V2000
    1.8290   -0.2800   -0.0170 O   0  0  0  0  0  0  0  0  0  0  0  0
    0.6950    0.3390   -0.1800 C   0  0  0  0  0  0  0  0  0  0  0  0
   -0.3810   -0.2230   -0.1730 O   0  0  0  0  0  0  0  0  0  0  0  0
    0.9350    1.7140   -0.2120 N   0  0  0  0  0  0  0  0  0  0  0  0
    2.5030    0.4170    0.0000 H   0  0  0  0  0  0  0  0  0  0  0  0
    1.1890    2.9700   -0.2450 N   0  0  0  0  0  0  0  0  0  0  0  0
    0.8370    4.2160   -0.1960 C   0  0  1  0  0  0  0  0  0  0  0  0
   -0.4440    4.5810   -0.0470 C   0  0  2  0  0  0  0  0  0  0  0  0
   -0.7950    5.8760    0.0660 C   0  0  2  0  0  0  0  0  0  0  0  0
    0.1530    6.8460    0.0250 C   0  0  2  0  0  0  0  0  0  0  0  0
    1.4250    6.4680   -0.1480 C   0  0  0  0  0  0  0  0  0  0  0  0
    1.7570    5.1800   -0.2560 C   0  0  0  0  0  0  0  0  0  0  0  0
   -0.2010    8.3300    0.2730 C   0  0  1  0  0  0  0  0  0  0  0  0
   -2.2710    6.1960    0.3160 C   0  0  0  0  0  0  0  0  0  0  0  0
   -1.3890    3.6210    0.0080 F   0  0  0  0  0  0  0  0  0  0  0  0
    2.8060    4.9110   -0.3680 H   0  0  0  0  0  0  0  0  0  0  0  0
    2.2220    7.2060   -0.1700 H   0  0  0  0  0  0  0  0  0  0  0  0
    0.8120    9.4880    0.0760 C   0  0  0  0  0  0  0  0  0  0  0  0
   -0.1610   10.6530    0.3910 C   0  0  2  0  0  0  0  0  0  0  0  0
   -1.3780   10.2850   -0.3520 N   0  0  0  0  0  0  0  0  0  0  0  0
   -1.3520    8.8320   -0.5020 N   0  0  0  0  0  0  0  0  0  0  0  0
    0.1780   12.0720    0.1340 C   0  0  0  0  0  0  0  0  0  0  0  0
   -2.2260    8.5000   -0.0980 H   0  0  0  0  0  0  0  0  0  0  0  0
   -1.3030   10.6190   -1.3110 H   0  0  0  0  0  0  0  0  0  0  0  0
    1.1810    9.5300   -0.9530 H   0  0  0  0  0  0  0  0  0  0  0  0
   -0.3840   10.5940    1.4600 H   0  0  0  0  0  0  0  0  0  0  0  0
    1.6520    9.4400    0.7730 H   0  0  0  0  0  0  0  0  0  0  0  0
   -0.4820    8.3710    1.3300 H   0  0  0  0  0  0  0  0  0  0  0  0
    0.2440   13.2900   -0.0040 C   0  0  0  0  0  0  0  0  0  0  0  0
    0.1920   14.7510   -0.1170 C   0  0  0  0  0  0  0  0  0  0  0  0
   -2.8500    5.3380    0.6610 H   0  0  0  0  0  0  0  0  0  0  0  0
   -2.7430    6.5480   -0.6050 H   0  0  0  0  0  0  0  0  0  0  0  0
   -2.3920    6.9600    1.0870 H   0  0  0  0  0  0  0  0  0  0  0  0
   -0.9900   15.3040    0.0440 O   0  0  0  0  0  0  0  0  0  0  0  0
    1.1940   15.4180   -0.2650 O   0  0  0  0  0  0  0  0  0  0  0  0
   -0.9240   16.2880    0.0000 H   0  0  0  0  0  0  0  0  0  0  0  0
  1  5  1  0  0  0  0
  2  1  1  0  0  0  0
  3  2  2  0  0  0  0
  4  2  1  0  0  0  0
  6  4  2  0  0  0  0
  7  6  1  1  0  0  0
  7 12  5  0  0  0  0
  8  7  5  0  0  0  0
  8  9  5  0  0  0  0
  8 15  1  1  0  0  0
  9 14  1  1  0  0  0
 10  9  5  0  0  0  0
 10 11  5  1  0  0  0
 10 13  1  0  0  0  0
 11 17  1  0  0  0  0
 12 11  5  0  0  0  0
 12 16  1  0  0  0  0
 13 21  1  0  0  0  0
 13 28  1  1  0  0  0
 14 31  1  0  0  0  0
 14 32  1  0  0  0  0
 14 33  1  0  0  0  0
 18 13  1  0  0  0  0
 18 25  1  0  0  0  0
 18 27  1  0  0  0  0
 19 18  1  0  0  0  0
 19 26  1  1  0  0  0
 20 19  1  0  0  0  0
 21 20  1  0  0  0  0
 22 19  1  0  0  0  0
 23 21  1  0  0  0  0
 24 20  1  0  0  0  0
 29 22  3  0  0  0  0
 30 29  1  0  0  0  0
 30 35  2  0  0  0  0
 34 30  1  0  0  0  0
 36 34  1  0  0  0  0
M  END
