
 OpenBabel07202118273D

 24 23  0  0  0  0  0  0  0  0999 V2000
    1.6000    0.0440    0.0040 O   0  0  0  0  0  0  0  0  0  0  0  0
    0.6410    0.9490    0.0030 C   0  0  0  0  0  0  0  0  0  0  0  0
   -0.5250    0.6120    0.0090 O   0  0  0  0  0  0  0  0  0  0  0  0
    1.0240    2.3850   -0.0070 C   0  0  0  0  0  0  0  0  0  0  0  0
    2.5030    0.4170    0.0000 H   0  0  0  0  0  0  0  0  0  0  0  0
    0.1770    3.4300   -0.0090 C   0  0  0  0  0  0  0  0  0  0  0  0
    0.0320    4.7170   -0.0150 N   0  0  0  0  0  0  0  0  0  0  0  0
   -0.9120    3.5960   -0.0050 H   0  0  0  0  0  0  0  0  0  0  0  0
    2.0860    2.6200   -0.0120 H   0  0  0  0  0  0  0  0  0  0  0  0
    0.1670    5.9760   -0.0050 N   0  0  0  0  0  0  0  0  0  0  0  0
    0.3130    7.0690    0.0060 C   0  0  0  0  0  0  0  0  0  0  0  0
   -0.0210    8.4080   -0.0000 C   0  0  0  0  0  0  0  0  0  0  0  0
    0.2820    9.7020    0.0000 N   0  0  0  0  0  0  0  0  0  0  0  0
    0.1660   10.9620    0.0010 N   0  0  0  0  0  0  0  0  0  0  0  0
    0.1410   12.0660    0.0020 C   0  0  0  0  0  0  0  0  0  0  0  0
    0.0720   13.4460    0.0000 C   0  0  0  0  0  0  0  0  0  0  0  0
   -0.0780   14.8210    0.0000 C   0  0  0  0  0  0  0  0  0  0  0  0
   -0.2730   16.1900    0.0000 C   0  0  0  0  0  0  0  0  0  0  0  0
   -0.5250   17.5520    0.0000 C   0  0  0  0  0  0  0  0  0  0  0  0
   -0.8180   18.9050    0.0000 C   0  0  0  0  0  0  0  0  0  0  0  0
   -0.6770   20.3610   -0.0000 C   0  0  0  0  0  0  0  0  0  0  0  0
   -1.7600   21.1010    0.0000 O   0  0  0  0  0  0  0  0  0  0  0  0
    0.4220   20.8750   -0.0000 O   0  0  0  0  0  0  0  0  0  0  0  0
   -1.5000   22.0510    0.0000 H   0  0  0  0  0  0  0  0  0  0  0  0
  1  5  1  0  0  0  0
  2  1  1  0  0  0  0
  3  2  2  0  0  0  0
  4  2  1  0  0  0  0
  4  9  1  0  0  0  0
  6  4  2  0  0  0  0
  6  8  1  0  0  0  0
  7  6  1  0  0  0  0
 10  7  2  0  0  0  0
 11 10  1  0  0  0  0
 12 11  3  0  0  0  0
 13 12  1  0  0  0  0
 14 13  2  0  0  0  0
 15 14  1  0  0  0  0
 16 15  3  0  0  0  0
 17 16  1  0  0  0  0
 18 17  3  0  0  0  0
 19 18  1  0  0  0  0
 20 19  3  0  0  0  0
 21 20  1  0  0  0  0
 21 23  2  0  0  0  0
 22 21  1  0  0  0  0
 24 22  1  0  0  0  0
M  END
