
 OpenBabel07202118273D

 40 42  0  0  1  0  0  0  0  0999 V2000
    1.9650   -0.3580   -0.2350 O   0  0  0  0  0  0  0  0  0  0  0  0
    0.7220    0.0360   -0.2680 C   0  0  0  0  0  0  0  0  0  0  0  0
   -0.1800   -0.7000   -0.6120 O   0  0  0  0  0  0  0  0  0  0  0  0
    0.5290    1.4560    0.0980 C   0  0  0  0  0  0  0  0  0  0  0  0
    2.5030    0.4170    0.0000 H   0  0  0  0  0  0  0  0  0  0  0  0
   -0.6670    2.0600    0.0100 C   0  0  0  0  0  0  0  0  0  0  0  0
   -0.9050    3.5110    0.3640 C   0  0  2  0  0  0  0  0  0  0  0  0
   -1.5410    1.5090   -0.3290 H   0  0  0  0  0  0  0  0  0  0  0  0
    1.4090    2.0010    0.4370 H   0  0  0  0  0  0  0  0  0  0  0  0
    0.1680    4.4620   -0.2020 C   0  0  0  0  0  0  0  0  0  0  0  0
   -0.1370    5.8310    0.2460 N   0  0  0  0  0  0  0  0  0  0  0  0
   -0.4950    5.4950    1.2360 N   0  0  0  0  0  0  0  0  0  0  0  0
   -1.0310    4.2650    1.1590 N   0  0  0  0  0  0  0  0  0  0  0  0
    0.4550    7.0130   -0.0020 C   0  0  2  0  0  0  0  0  0  0  0  0
    1.1730    4.1750    0.1390 H   0  0  0  0  0  0  0  0  0  0  0  0
    0.1610    4.4250   -1.2950 H   0  0  0  0  0  0  0  0  0  0  0  0
   -1.8970    3.8130    0.0130 H   0  0  0  0  0  0  0  0  0  0  0  0
   -0.2570    8.0470   -0.4510 C   0  0  0  0  0  0  0  0  0  0  0  0
    0.3190    9.2240   -0.6950 C   0  0  0  0  0  0  0  0  0  0  0  0
    1.6410    9.4190   -0.4970 C   0  0  2  0  0  0  0  0  0  0  0  0
    2.3380    8.3670   -0.0520 C   0  0  0  0  0  0  0  0  0  0  0  0
    1.7650    7.1890    0.1900 C   0  0  0  0  0  0  0  0  0  0  0  0
    2.3190   10.5230   -0.6780 N   0  0  0  0  0  0  0  0  0  0  0  0
   -0.3310   10.0200   -1.0520 H   0  0  0  0  0  0  0  0  0  0  0  0
   -1.3260    7.9350   -0.6180 H   0  0  0  0  0  0  0  0  0  0  0  0
    2.3780    6.3690    0.5560 H   0  0  0  0  0  0  0  0  0  0  0  0
    3.4070    8.4670    0.1270 H   0  0  0  0  0  0  0  0  0  0  0  0
    1.6020   11.4890   -1.1000 N   0  0  0  0  0  0  0  0  0  0  0  0
    1.2610   12.4320   -0.0120 C   0  0  2  0  0  0  0  0  0  0  0  0
    2.2570   13.5980   -0.0070 C   0  0  0  0  0  0  0  0  0  0  0  0
    1.6460   14.6700    0.7830 N   0  0  0  0  0  0  0  0  0  0  0  0
    1.4050   13.9510    1.5920 N   0  0  0  0  0  0  0  0  0  0  0  0
    0.9850   12.8230    0.9840 N   0  0  0  0  0  0  0  0  0  0  0  0
    1.1720   15.7970    0.2060 C   0  0  0  0  0  0  0  0  0  0  0  0
    2.4270   13.9410   -1.0320 H   0  0  0  0  0  0  0  0  0  0  0  0
    3.2410   13.2990    0.3910 H   0  0  0  0  0  0  0  0  0  0  0  0
    0.2270   12.7820   -0.1660 H   0  0  0  0  0  0  0  0  0  0  0  0
    0.0380   16.1970    0.7050 O   0  0  0  0  0  0  0  0  0  0  0  0
    1.5560   16.2030   -0.8720 O   0  0  0  0  0  0  0  0  0  0  0  0
   -0.3610   16.7260    0.0000 H   0  0  0  0  0  0  0  0  0  0  0  0
  1  5  1  0  0  0  0
  2  1  1  0  0  0  0
  3  2  2  0  0  0  0
  4  2  1  0  0  0  0
  4  9  1  0  0  0  0
  6  4  2  0  0  0  0
  6  8  1  0  0  0  0
  7  6  1  0  0  0  0
  7 13  1  0  0  0  0
  7 17  1  6  0  0  0
 10  7  1  0  0  0  0
 10 15  1  0  0  0  0
 10 16  1  0  0  0  0
 11 10  1  0  0  0  0
 12 11  1  0  0  0  0
 13 12  2  0  0  0  0
 14 11  1  6  0  0  0
 14 22  5  0  0  0  0
 18 14  5  0  0  0  0
 18 19  5  0  0  0  0
 18 25  1  0  0  0  0
 19 24  1  0  0  0  0
 20 19  5  0  0  0  0
 20 23  1  1  0  0  0
 21 20  5  0  0  0  0
 21 27  1  0  0  0  0
 22 21  5  0  0  0  0
 22 26  1  0  0  0  0
 28 23  2  0  0  0  0
 29 28  1  0  0  0  0
 29 33  1  0  0  0  0
 29 37  1  6  0  0  0
 30 29  1  0  0  0  0
 30 35  1  0  0  0  0
 30 36  1  0  0  0  0
 31 30  1  0  0  0  0
 32 31  1  0  0  0  0
 33 32  2  0  0  0  0
 34 31  1  0  0  0  0
 34 39  2  0  0  0  0
 38 34  1  0  0  0  0
 40 38  1  0  0  0  0
M  END
