
 OpenBabel07202118273D

 16 16  0  0  1  0  0  0  0  0999 V2000
    1.7930    0.9870    0.3750 O   0  0  0  0  0  0  0  0  0  0  0  0
    1.7710    2.1340   -0.2620 C   0  0  0  0  0  0  0  0  0  0  0  0
    2.5390    2.3790   -1.1700 O   0  0  0  0  0  0  0  0  0  0  0  0
    0.6970    3.0990    0.2390 C   0  0  2  0  0  0  0  0  0  0  0  0
    2.5030    0.4170    0.0000 H   0  0  0  0  0  0  0  0  0  0  0  0
    0.7860    4.5180   -0.3880 C   0  0  0  0  0  0  0  0  0  0  0  0
   -0.1210    5.5150    0.2260 N   0  0  0  0  0  0  0  0  0  0  0  0
   -0.4180    4.8140    1.0240 N   0  0  0  0  0  0  0  0  0  0  0  0
   -0.1070    3.5160    0.8690 N   0  0  0  0  0  0  0  0  0  0  0  0
   -0.2730    6.7800   -0.2530 C   0  0  0  0  0  0  0  0  0  0  0  0
    1.8120    4.8940   -0.3160 H   0  0  0  0  0  0  0  0  0  0  0  0
    0.5450    4.4440   -1.4540 H   0  0  0  0  0  0  0  0  0  0  0  0
   -0.2690    2.6320    0.0180 H   0  0  0  0  0  0  0  0  0  0  0  0
   -1.1000    7.5430    0.4230 O   0  0  0  0  0  0  0  0  0  0  0  0
    0.3100    7.1850   -1.2390 O   0  0  0  0  0  0  0  0  0  0  0  0
   -1.1410    8.4300    0.0000 H   0  0  0  0  0  0  0  0  0  0  0  0
  1  5  1  0  0  0  0
  2  1  1  0  0  0  0
  3  2  2  0  0  0  0
  4  2  1  0  0  0  0
  4  9  1  0  0  0  0
  4 13  1  6  0  0  0
  6  4  1  0  0  0  0
  6 11  1  0  0  0  0
  6 12  1  0  0  0  0
  7  6  1  0  0  0  0
  8  7  1  0  0  0  0
  9  8  2  0  0  0  0
 10  7  1  0  0  0  0
 10 15  2  0  0  0  0
 14 10  1  0  0  0  0
 16 14  1  0  0  0  0
M  END
