
 OpenBabel07202119143D

 72 76  0  0  1  0  0  0  0  0999 V2000
    2.0080    1.4650   -0.0830 O   0  0  0  0  0  0  0  0  0  0  0  0
    2.0660    2.9350   -0.0450 C   0  0  0  0  0  0  0  0  0  0  0  0
    0.8860    3.1180   -0.2660 O   0  0  0  0  0  0  0  0  0  0  0  0
    2.5140    4.4430    0.0790 N   0  0  0  0  0  0  0  0  0  0  0  0
    2.5030    0.4170    0.0000 H   0  0  0  0  0  0  0  0  0  0  0  0
    2.5390    5.8140    0.0550 N   0  0  0  0  0  0  0  0  0  0  0  0
    2.1310    7.4390   -0.1750 N   0  0  0  0  0  0  0  0  0  0  0  0
    2.5850    8.7240    0.0750 N   0  0  0  0  0  0  0  0  0  0  0  0
    2.4840   10.4020   -0.2940 C   0  0  2  0  0  0  0  0  0  0  0  0
    2.9740   11.8010    0.3690 O   0  0  0  0  0  0  0  0  0  0  0  0
    1.0450   12.5140   -0.6180 C   0  0  0  0  0  0  0  0  0  0  0  0
    1.0430   10.9260   -0.4920 C   0  0  0  0  0  0  0  0  0  0  0  0
    2.3670   14.9250   -0.0230 C   0  0  2  0  0  0  0  0  0  0  0  0
    0.5890   10.4660   -1.3730 H   0  0  0  0  0  0  0  0  0  0  0  0
    0.6960   12.7990   -1.6130 H   0  0  0  0  0  0  0  0  0  0  0  0
    0.3250   12.9150    0.1000 H   0  0  0  0  0  0  0  0  0  0  0  0
    0.4420   10.6320    0.3730 H   0  0  0  0  0  0  0  0  0  0  0  0
    2.9760   13.1120   -1.3120 H   0  0  0  0  0  0  0  0  0  0  0  0
    2.4560   13.1520   -0.3510 C   0  0  1  0  0  0  0  0  0  0  0  0
    2.9690   10.4430   -1.2810 H   0  0  0  0  0  0  0  0  0  0  0  0
    3.2840   16.2830   -0.4000 C   0  0  0  0  0  0  0  0  0  0  0  0
    2.4900   17.7050    0.0310 C   0  0  1  0  0  0  0  0  0  0  0  0
    1.8610   17.0790    1.2580 N   0  0  0  0  0  0  0  0  0  0  0  0
    1.7050   15.5520    1.1780 N   0  0  0  0  0  0  0  0  0  0  0  0
    2.7100   19.4950   -0.2210 C   0  0  2  0  0  0  0  0  0  0  0  0
    0.7000   15.3760    1.1700 H   0  0  0  0  0  0  0  0  0  0  0  0
    2.4350   17.2280    2.0850 H   0  0  0  0  0  0  0  0  0  0  0  0
    4.2250   16.2230    0.1540 H   0  0  0  0  0  0  0  0  0  0  0  0
    1.6680   17.6130   -0.6850 H   0  0  0  0  0  0  0  0  0  0  0  0
    3.5310   16.2860   -1.4630 H   0  0  0  0  0  0  0  0  0  0  0  0
    1.5970   15.1020   -0.7780 H   0  0  0  0  0  0  0  0  0  0  0  0
    3.6000   20.8320    0.3460 C   0  0  0  0  0  0  0  0  0  0  0  0
    2.9710   22.3340   -0.1850 C   0  0  1  0  0  0  0  0  0  0  0  0
    1.5590   21.8010   -0.1380 N   0  0  0  0  0  0  0  0  0  0  0  0
    1.4390   20.2840   -0.0250 N   0  0  0  0  0  0  0  0  0  0  0  0
    3.2120   24.0880    0.0550 C   0  0  2  0  0  0  0  0  0  0  0  0
    0.7390   20.0040   -0.7100 H   0  0  0  0  0  0  0  0  0  0  0  0
    1.1170   22.0170   -1.0290 H   0  0  0  0  0  0  0  0  0  0  0  0
    3.6030   20.8110    1.4390 H   0  0  0  0  0  0  0  0  0  0  0  0
    3.2270   22.2640   -1.2460 H   0  0  0  0  0  0  0  0  0  0  0  0
    4.6400   20.7310    0.0240 H   0  0  0  0  0  0  0  0  0  0  0  0
    2.9100   19.5290   -1.2950 H   0  0  0  0  0  0  0  0  0  0  0  0
    2.2210   25.0510    0.1230 C   0  0  0  0  0  0  0  0  0  0  0  0
    2.3470   26.4550    0.1530 C   0  0  0  0  0  0  0  0  0  0  0  0
    3.4930   27.2220    0.1120 C   0  0  1  0  0  0  0  0  0  0  0  0
    4.4980   26.2600    0.0470 C   0  0  0  0  0  0  0  0  0  0  0  0
    4.3680   24.8500    0.0160 C   0  0  0  0  0  0  0  0  0  0  0  0
    3.6060   28.6780    0.1010 C   0  0  0  0  0  0  0  0  0  0  0  0
    1.4080   27.0060    0.1960 H   0  0  0  0  0  0  0  0  0  0  0  0
    1.2030   24.6690    0.1280 H   0  0  0  0  0  0  0  0  0  0  0  0
    5.2950   24.2890   -0.0770 H   0  0  0  0  0  0  0  0  0  0  0  0
    5.5160   26.6360   -0.0070 H   0  0  0  0  0  0  0  0  0  0  0  0
    3.6750   29.9540    0.0520 C   0  0  0  0  0  0  0  0  0  0  0  0
    3.6290   31.6560   -0.2270 C   0  0  2  0  0  0  0  0  0  0  0  0
    4.4530   33.0290    0.2100 O   0  0  0  0  0  0  0  0  0  0  0  0
    2.4620   33.9690   -0.4200 C   0  0  0  0  0  0  0  0  0  0  0  0
    2.2700   32.4080   -0.1010 C   0  0  0  0  0  0  0  0  0  0  0  0
    4.2980   36.2020   -0.0940 C   0  0  0  0  0  0  0  0  0  0  0  0
    1.5310   31.9680   -0.7730 H   0  0  0  0  0  0  0  0  0  0  0  0
    2.5680   34.0950   -1.5000 H   0  0  0  0  0  0  0  0  0  0  0  0
    1.5770   34.5270   -0.1060 H   0  0  0  0  0  0  0  0  0  0  0  0
    1.9010   32.2880    0.9210 H   0  0  0  0  0  0  0  0  0  0  0  0
    3.4700   34.6100    1.3350 H   0  0  0  0  0  0  0  0  0  0  0  0
    3.7420   34.5360    0.2780 C   0  0  2  0  0  0  0  0  0  0  0  0
    3.8190   31.6500   -1.3040 H   0  0  0  0  0  0  0  0  0  0  0  0
    3.9360   37.6330    0.2020 C   0  0  0  0  0  0  0  0  0  0  0  0
    4.5280   39.2150   -0.1740 C   0  0  0  0  0  0  0  0  0  0  0  0
    3.0550   37.7290    0.8340 H   0  0  0  0  0  0  0  0  0  0  0  0
    5.1830   36.1210   -0.7210 H   0  0  0  0  0  0  0  0  0  0  0  0
    4.0690   40.5960    0.1850 O   0  0  0  0  0  0  0  0  0  0  0  0
    5.5210   39.1970   -0.8700 O   0  0  0  0  0  0  0  0  0  0  0  0
    4.3770   41.7810    0.0000 H   0  0  0  0  0  0  0  0  0  0  0  0
  1  5  1  0  0  0  0
  2  1  1  0  0  0  0
  3  2  2  0  0  0  0
  4  2  1  0  0  0  0
  6  4  2  0  0  0  0
  7  6  1  0  0  0  0
  8  7  2  0  0  0  0
  9  8  1  0  0  0  0
  9 12  1  0  0  0  0
  9 20  1  6  0  0  0
 10  9  1  0  0  0  0
 11 19  1  0  0  0  0
 11 16  1  0  0  0  0
 12 11  1  0  0  0  0
 12 17  1  0  0  0  0
 13 19  1  0  0  0  0
 13 24  1  0  0  0  0
 13 31  1  6  0  0  0
 14 12  1  0  0  0  0
 15 11  1  0  0  0  0
 19 10  1  0  0  0  0
 19 18  1  6  0  0  0
 21 13  1  0  0  0  0
 21 28  1  0  0  0  0
 21 30  1  0  0  0  0
 22 21  1  0  0  0  0
 22 29  1  6  0  0  0
 23 22  1  0  0  0  0
 24 23  1  0  0  0  0
 25 22  1  0  0  0  0
 25 35  1  0  0  0  0
 25 42  1  6  0  0  0
 26 24  1  0  0  0  0
 27 23  1  0  0  0  0
 32 25  1  0  0  0  0
 32 39  1  0  0  0  0
 32 41  1  0  0  0  0
 33 32  1  0  0  0  0
 33 40  1  6  0  0  0
 34 33  1  0  0  0  0
 35 34  1  0  0  0  0
 36 33  1  0  0  0  0
 36 43  5  6  0  0  0
 36 47  5  0  0  0  0
 37 35  1  0  0  0  0
 38 34  1  0  0  0  0
 43 44  5  0  0  0  0
 43 50  1  0  0  0  0
 44 49  1  0  0  0  0
 45 44  5  0  0  0  0
 45 48  1  6  0  0  0
 46 45  5  0  0  0  0
 46 52  1  0  0  0  0
 47 46  5  0  0  0  0
 47 51  1  0  0  0  0
 53 48  3  0  0  0  0
 54 53  1  0  0  0  0
 54 57  1  0  0  0  0
 54 65  1  6  0  0  0
 55 54  1  0  0  0  0
 56 64  1  0  0  0  0
 56 61  1  0  0  0  0
 57 56  1  0  0  0  0
 57 62  1  0  0  0  0
 58 64  1  0  0  0  0
 58 69  1  0  0  0  0
 59 57  1  0  0  0  0
 60 56  1  0  0  0  0
 64 55  1  0  0  0  0
 64 63  1  1  0  0  0
 66 58  2  0  0  0  0
 66 68  1  0  0  0  0
 67 66  1  0  0  0  0
 67 71  2  0  0  0  0
 70 67  1  0  0  0  0
 72 70  1  0  0  0  0
M  END
