
 OpenBabel07202119143D

 73 78  0  0  1  0  0  0  0  0999 V2000
    2.4370    1.6120   -0.2750 O   0  0  0  0  0  0  0  0  0  0  0  0
    2.4960    2.9280    0.4200 C   0  0  0  0  0  0  0  0  0  0  0  0
    2.5740    2.8380    1.6280 O   0  0  0  0  0  0  0  0  0  0  0  0
    2.2940    4.6090   -0.1480 C   0  0  2  0  0  0  0  0  0  0  0  0
    2.5030    0.4170    0.0000 H   0  0  0  0  0  0  0  0  0  0  0  0
    3.1420    6.0790    0.1470 C   0  0  0  0  0  0  0  0  0  0  0  0
    2.2620    7.5110   -0.1510 C   0  0  1  0  0  0  0  0  0  0  0  0
    0.9880    6.8530    0.3150 N   0  0  0  0  0  0  0  0  0  0  0  0
    0.9790    5.3190    0.1760 N   0  0  0  0  0  0  0  0  0  0  0  0
    2.4530    9.3470   -0.3050 C   0  0  2  0  0  0  0  0  0  0  0  0
    0.2430    5.0830   -0.4880 H   0  0  0  0  0  0  0  0  0  0  0  0
    0.8240    7.0230    1.3060 H   0  0  0  0  0  0  0  0  0  0  0  0
    4.0660    6.0870   -0.4320 H   0  0  0  0  0  0  0  0  0  0  0  0
    2.1630    7.3680   -1.2310 H   0  0  0  0  0  0  0  0  0  0  0  0
    3.4310    6.0880    1.2010 H   0  0  0  0  0  0  0  0  0  0  0  0
    2.3120    4.4900   -1.2340 H   0  0  0  0  0  0  0  0  0  0  0  0
    3.0250   10.6950    0.4570 O   0  0  0  0  0  0  0  0  0  0  0  0
    1.2680   11.6920   -0.5560 C   0  0  0  0  0  0  0  0  0  0  0  0
    1.1080   10.0990   -0.5710 C   0  0  0  0  0  0  0  0  0  0  0  0
    2.6730   13.9360    0.3330 C   0  0  1  0  0  0  0  0  0  0  0  0
    0.4000    9.8230    0.2160 H   0  0  0  0  0  0  0  0  0  0  0  0
    0.9440   12.1140   -1.5090 H   0  0  0  0  0  0  0  0  0  0  0  0
    0.5840   12.0880    0.2020 H   0  0  0  0  0  0  0  0  0  0  0  0
    0.6650    9.7750   -1.5150 H   0  0  0  0  0  0  0  0  0  0  0  0
    3.2780   12.1940   -1.1460 H   0  0  0  0  0  0  0  0  0  0  0  0
    2.7160   12.1870   -0.2090 C   0  0  1  0  0  0  0  0  0  0  0  0
    3.0020    9.4080   -1.2470 H   0  0  0  0  0  0  0  0  0  0  0  0
    3.6120   15.4700    0.2170 C   0  0  0  0  0  0  0  0  0  0  0  0
    3.1270   17.0870   -0.1190 N   0  0  0  0  0  0  0  0  0  0  0  0
    2.3820   16.2560   -0.1430 N   0  0  0  0  0  0  0  0  0  0  0  0
    2.2300   14.9180    0.0350 N   0  0  0  0  0  0  0  0  0  0  0  0
    3.4720   18.7080    0.4290 C   0  0  1  0  0  0  0  0  0  0  0  0
    4.1480   15.5360    1.1840 H   0  0  0  0  0  0  0  0  0  0  0  0
    4.4490   15.2610   -0.4780 H   0  0  0  0  0  0  0  0  0  0  0  0
    1.9130   14.0430    1.1130 H   0  0  0  0  0  0  0  0  0  0  0  0
    4.0650   20.2210   -0.3220 C   0  0  0  0  0  0  0  0  0  0  0  0
    3.9470   21.8990    0.0780 N   0  0  0  0  0  0  0  0  0  0  0  0
    3.3810   21.1020    0.6230 N   0  0  0  0  0  0  0  0  0  0  0  0
    3.1940   19.7560    0.7210 N   0  0  0  0  0  0  0  0  0  0  0  0
    4.1220   23.5080    0.0640 C   0  0  0  0  0  0  0  0  0  0  0  0
    5.1630   20.0540   -0.3680 H   0  0  0  0  0  0  0  0  0  0  0  0
    3.8180   20.1490   -1.4040 H   0  0  0  0  0  0  0  0  0  0  0  0
    2.8370   18.9130    1.3050 H   0  0  0  0  0  0  0  0  0  0  0  0
    4.2550   24.7740    0.0570 C   0  0  0  0  0  0  0  0  0  0  0  0
    4.3960   26.2220    0.0520 C   0  0  1  0  0  0  0  0  0  0  0  0
    3.3910   27.1670    0.0650 C   0  0  0  0  0  0  0  0  0  0  0  0
    3.5190   28.5640    0.0950 C   0  0  0  0  0  0  0  0  0  0  0  0
    4.6580   29.3520    0.0990 C   0  0  2  0  0  0  0  0  0  0  0  0
    5.6870   28.4020    0.0800 C   0  0  2  0  0  0  0  0  0  0  0  0
    5.5470   26.9940    0.0550 C   0  0  0  0  0  0  0  0  0  0  0  0
    4.6020   31.1230    0.3150 C   0  0  1  0  0  0  0  0  0  0  0  0
    2.5800   29.1120    0.1380 H   0  0  0  0  0  0  0  0  0  0  0  0
    2.3770   26.7820    0.0800 H   0  0  0  0  0  0  0  0  0  0  0  0
    6.4770   26.4280    0.0540 H   0  0  0  0  0  0  0  0  0  0  0  0
    7.5060   29.9410   -0.5360 C   0  0  0  0  0  0  0  0  0  0  0  0
    5.5020   32.5240   -0.0340 C   0  0  0  0  0  0  0  0  0  0  0  0
    4.7020   34.0040    0.2420 C   0  0  2  0  0  0  0  0  0  0  0  0
    3.4210   33.3680   -0.2360 N   0  0  0  0  0  0  0  0  0  0  0  0
    3.3180   31.8540   -0.0280 N   0  0  0  0  0  0  0  0  0  0  0  0
    5.0970   35.6430   -0.2640 C   0  0  0  0  0  0  0  0  0  0  0  0
    2.5990   31.7070    0.6760 H   0  0  0  0  0  0  0  0  0  0  0  0
    3.3310   33.4820   -1.2440 H   0  0  0  0  0  0  0  0  0  0  0  0
    5.8040   32.4920   -1.0850 H   0  0  0  0  0  0  0  0  0  0  0  0
    4.6230   34.0960    1.3280 H   0  0  0  0  0  0  0  0  0  0  0  0
    6.4250   32.5360    0.5530 H   0  0  0  0  0  0  0  0  0  0  0  0
    4.6390   31.1630    1.4070 H   0  0  0  0  0  0  0  0  0  0  0  0
    6.9150   30.1520   -1.4310 H   0  0  0  0  0  0  0  0  0  0  0  0
    7.4930   30.7810    0.1550 H   0  0  0  0  0  0  0  0  0  0  0  0
    8.5470   29.7610   -0.8240 H   0  0  0  0  0  0  0  0  0  0  0  0
    7.0120   28.7720    0.1500 O   0  0  0  0  0  0  0  0  0  0  0  0
    4.6380   36.9470    0.2400 O   0  0  0  0  0  0  0  0  0  0  0  0
    5.9200   35.7040   -1.1530 O   0  0  0  0  0  0  0  0  0  0  0  0
    4.8390   38.1110    0.0000 H   0  0  0  0  0  0  0  0  0  0  0  0
  1  5  1  0  0  0  0
  2  1  1  0  0  0  0
  3  2  2  0  0  0  0
  4  2  1  0  0  0  0
  4  9  1  0  0  0  0
  4 16  1  6  0  0  0
  6  4  1  0  0  0  0
  6 13  1  0  0  0  0
  6 15  1  0  0  0  0
  7  6  1  0  0  0  0
  7 14  1  6  0  0  0
  8  7  1  0  0  0  0
  9  8  1  0  0  0  0
 10  7  1  0  0  0  0
 10 19  1  0  0  0  0
 10 27  1  6  0  0  0
 11  9  1  0  0  0  0
 12  8  1  0  0  0  0
 17 10  1  0  0  0  0
 18 26  1  0  0  0  0
 18 23  1  0  0  0  0
 19 18  1  0  0  0  0
 19 24  1  0  0  0  0
 20 26  1  0  0  0  0
 20 31  1  0  0  0  0
 20 35  1  1  0  0  0
 21 19  1  0  0  0  0
 22 18  1  0  0  0  0
 26 17  1  0  0  0  0
 26 25  1  6  0  0  0
 28 20  1  0  0  0  0
 28 33  1  0  0  0  0
 28 34  1  0  0  0  0
 29 28  1  0  0  0  0
 30 29  1  0  0  0  0
 31 30  2  0  0  0  0
 32 29  1  0  0  0  0
 32 39  1  0  0  0  0
 32 43  1  1  0  0  0
 36 32  1  0  0  0  0
 36 41  1  0  0  0  0
 36 42  1  0  0  0  0
 37 36  1  0  0  0  0
 38 37  1  0  0  0  0
 39 38  2  0  0  0  0
 40 37  1  0  0  0  0
 44 40  3  0  0  0  0
 45 44  1  1  0  0  0
 45 50  5  0  0  0  0
 46 45  5  0  0  0  0
 46 47  5  0  0  0  0
 46 53  1  0  0  0  0
 47 52  1  0  0  0  0
 48 47  5  1  0  0  0
 48 51  1  0  0  0  0
 49 48  5  0  0  0  0
 49 70  1  1  0  0  0
 50 49  5  0  0  0  0
 50 54  1  0  0  0  0
 51 59  1  0  0  0  0
 51 66  1  1  0  0  0
 55 67  1  0  0  0  0
 55 68  1  0  0  0  0
 55 69  1  0  0  0  0
 55 70  1  0  0  0  0
 56 51  1  0  0  0  0
 56 63  1  0  0  0  0
 56 65  1  0  0  0  0
 57 56  1  0  0  0  0
 57 64  1  1  0  0  0
 58 57  1  0  0  0  0
 59 58  1  0  0  0  0
 60 57  1  0  0  0  0
 60 72  2  0  0  0  0
 61 59  1  0  0  0  0
 62 58  1  0  0  0  0
 71 60  1  0  0  0  0
 73 71  1  0  0  0  0
M  END
