
 OpenBabel05262109463D

  9  8  0  0  0  0  0  0  0  0999 V2000
    1.2116    0.6995    0.0000 O   0  0  0  0  0  0  0  0  0  0  0  0
    0.0000    1.3990    0.0000 C   0  0  0  0  0  0  0  0  0  0  0  0
   -1.2116    0.6995    0.0000 O   0  0  0  0  0  0  0  0  0  0  0  0
    0.0000    2.7980    0.0000 C   0  0  0  0  0  0  0  0  0  0  0  0
    2.5032    0.4173    0.0000 H   0  0  0  0  0  0  0  0  0  0  0  0
    0.0464    4.2997    0.0000 C   0  0  0  0  0  0  0  0  0  0  0  0
    0.1245    5.4731    0.0000 *   0  0  0  0  0  0  0  0  0  0  0  0
   -1.6806    4.3858    0.0000 H   0  0  0  0  0  0  0  0  0  0  0  0
    1.0534    2.8132    0.0000 H   0  0  0  0  0  0  0  0  0  0  0  0
  1  5  1  0  0  0  0
  2  1  1  0  0  0  0
  3  2  2  0  0  0  0
  4  2  1  0  0  0  0
  4  9  1  0  0  0  0
  6  4  2  3  0  0  0
  6  8  1  0  0  0  0
  7  6  1  0  0  0  0
M  END
