
 OpenBabel05262109463D

 16 16  0  0  1  0  0  0  0  0999 V2000
    1.2116    0.6995    0.0000 O   0  0  0  0  0  0  0  0  0  0  0  0
   -0.1168    0.9388    0.0000 C   0  0  0  0  0  0  0  0  0  0  0  0
   -1.2116    0.6995    0.0000 O   0  0  0  0  0  0  0  0  0  0  0  0
   -0.0000    2.7980    0.0000 C   0  0  1  0  0  0  0  0  0  0  0  0
    2.5032    0.4173    0.0000 H   0  0  0  0  0  0  0  0  0  0  0  0
    2.4292    4.9525    0.0000 C   0  0  0  0  0  0  0  0  0  0  0  0
    1.1449    7.3847    0.0000 C   0  0  2  0  0  0  0  0  0  0  0  0
   -2.0660    7.3163    0.0000 N   0  0  0  0  0  0  0  0  0  0  0  0
   -3.0515    4.6331    0.0000 N   0  0  0  0  0  0  0  0  0  0  0  0
    1.2671    9.8015    0.0000 *   0  0  0  0  0  0  0  0  0  0  0  0
   -5.6825    3.7849    0.0000 H   0  0  0  0  0  0  0  0  0  0  0  0
   -5.2113    9.6710    0.0000 H   0  0  0  0  0  0  0  0  0  0  0  0
    8.4581    2.8908    0.0000 H   0  0  0  0  0  0  0  0  0  0  0  0
    7.8042    7.1047    0.0000 H   0  0  0  0  0  0  0  0  0  0  0  0
    3.7324    0.0158    0.0000 H   0  0  0  0  0  0  0  0  0  0  0  0
   -2.1105    2.0721    0.0000 H   0  0  0  0  0  0  0  0  0  0  0  0
  1  5  1  0  0  0  0
  2  1  1  0  0  0  0
  3  2  2  0  0  0  0
  4  2  1  0  0  0  0
  4  9  1  0  0  0  0
  4 16  1  1  0  0  0
  6  4  1  0  0  0  0
  6 13  1  0  0  0  0
  6 15  1  0  0  0  0
  7  6  1  0  0  0  0
  7 14  1  1  0  0  0
  8  7  1  0  0  0  0
  9  8  1  0  0  0  0
 10  7  1  0  0  0  0
 11  9  1  0  0  0  0
 12  8  1  0  0  0  0
M  END
