
 OpenBabel07202119143D

 27 27  0  0  1  0  0  0  0  0999 V2000
    1.2116    0.6995    0.0000 O   0  0  0  0  0  0  0  0  0  0  0  0
    0.0000    1.3990    0.0000 C   0  0  0  0  0  0  0  0  0  0  0  0
   -1.2116    0.6995    0.0000 O   0  0  0  0  0  0  0  0  0  0  0  0
    0.0000    2.7980    0.0000 C   0  0  0  0  0  0  0  0  0  0  0  0
    2.5032    0.4173    0.0000 H   0  0  0  0  0  0  0  0  0  0  0  0
    0.0464    4.2997    0.0000 C   0  0  0  0  0  0  0  0  0  0  0  0
    0.1245    5.4731    0.0000 C   0  0  0  0  0  0  0  0  0  0  0  0
   -1.6806    4.3858    0.0000 H   0  0  0  0  0  0  0  0  0  0  0  0
    1.0534    2.8132    0.0000 H   0  0  0  0  0  0  0  0  0  0  0  0
    0.0994    6.8236    0.0000 C   0  0  0  0  0  0  0  0  0  0  0  0
    0.1834    7.8410    0.0000 N   0  0  0  0  0  0  0  0  0  0  0  0
    0.1233    8.7465    0.0000 N   0  0  0  0  0  0  0  0  0  0  0  0
    0.1652    9.7658    0.0000 C   0  0  1  0  0  0  0  0  0  0  0  0
    1.0006   10.2063    0.0000 O   0  0  0  0  0  0  0  0  0  0  0  0
   -0.1880   11.0567    0.0000 C   0  0  0  0  0  0  0  0  0  0  0  0
   -0.5430   10.1940    0.0000 C   0  0  0  0  0  0  0  0  0  0  0  0
    0.7716   11.8858    0.0000 C   0  0  0  0  0  0  0  0  0  0  0  0
   -1.6251   10.1840    0.0000 H   0  0  0  0  0  0  0  0  0  0  0  0
   -0.6519   12.0356    0.0000 H   0  0  0  0  0  0  0  0  0  0  0  0
   -1.5678   11.1047    0.0000 H   0  0  0  0  0  0  0  0  0  0  0  0
   -1.0242    9.0301    0.0000 H   0  0  0  0  0  0  0  0  0  0  0  0
    2.0933   10.9288    0.0000 H   0  0  0  0  0  0  0  0  0  0  0  0
    0.6907   11.0320    0.0000 C   0  0  2  0  0  0  0  0  0  0  0  0
    1.0816    9.0920    0.0000 H   0  0  0  0  0  0  0  0  0  0  0  0
   -0.9051   13.3987    0.0000 O   0  0  0  0  0  0  0  0  0  0  0  0
    2.0823   13.1748    0.0000 O   0  0  0  0  0  0  0  0  0  0  0  0
   -1.0138   14.9088    0.0000 H   0  0  0  0  0  0  0  0  0  0  0  0
  1  5  1  0  0  0  0
  2  1  1  0  0  0  0
  3  2  2  0  0  0  0
  4  2  1  0  0  0  0
  4  9  1  0  0  0  0
  6  4  2  3  0  0  0
  6  8  1  0  0  0  0
  7  6  1  0  0  0  0
 10  7  3  0  0  0  0
 11 10  1  0  0  0  0
 12 11  2  0  0  0  0
 13 12  1  0  0  0  0
 13 16  1  0  0  0  0
 13 24  1  1  0  0  0
 14 13  1  0  0  0  0
 15 23  1  0  0  0  0
 15 20  1  0  0  0  0
 16 15  1  0  0  0  0
 16 21  1  0  0  0  0
 17 23  1  0  0  0  0
 17 26  2  0  0  0  0
 18 16  1  0  0  0  0
 19 15  1  0  0  0  0
 23 14  1  0  0  0  0
 23 22  1  1  0  0  0
 25 17  1  0  0  0  0
 27 25  1  0  0  0  0
M  END
