
 OpenBabel06022114453D

 21 21  0  0  1  0  0  0  0  0999 V2000
    0.7170   -0.4240    0.5880 O   0  0  0  0  0  0  0  0  0  0  0  0
   -0.2070    0.3560   -0.0250 C   0  0  0  0  0  0  0  0  0  0  0  0
   -1.2510   -0.1710   -0.3810 O   0  0  0  0  0  0  0  0  0  0  0  0
   -0.0010    1.8570    0.0000 C   0  0  2  0  0  0  0  0  0  0  0  0
    1.5730   -0.1110    0.9040 H   0  0  0  0  0  0  0  0  0  0  0  0
   -1.9262    2.2444    0.0000 C   0  0  1  0  0  0  0  0  0  0  0  0
   -0.7820    3.7810   -0.0000 C   0  0  0  0  0  0  0  0  0  0  0  0
    0.3560    4.1760    0.4350 C   0  0  1  0  0  0  0  0  0  0  0  0
    1.2800    3.5400   -0.1290 C   0  0  0  0  0  0  0  0  0  0  0  0
    1.1640    2.2850   -0.0110 C   0  0  2  0  0  0  0  0  0  0  0  0
    0.4270    4.9220    0.0000 C   0  0  0  0  0  0  0  0  0  0  0  0
   -1.5610    4.3440    0.6420 H   0  0  0  0  0  0  0  0  0  0  0  0
   -1.9287    2.2452    0.0000 Cl  0  0  0  0  0  0  0  0  0  0  0  0
    2.1350    1.6630   -0.8140 O   0  0  0  0  0  0  0  0  0  0  0  0
    2.2590    3.8880    0.2670 H   0  0  0  0  0  0  0  0  0  0  0  0
    2.8800    1.4300   -0.2000 H   0  0  0  0  0  0  0  0  0  0  0  0
    0.4018    6.2725    0.0000 C   0  0  0  0  0  0  0  0  0  0  0  0
    0.4859    7.2899    0.0000 C   0  0  0  0  0  0  0  0  0  0  0  0
   -1.1907    8.8028    0.0000 O   0  0  0  0  0  0  0  0  0  0  0  0
    1.7967    8.5789    0.0000 O   0  0  0  0  0  0  0  0  0  0  0  0
   -1.2994   10.3130    0.0000 H   0  0  0  0  0  0  0  0  0  0  0  0
  1  5  1  0  0  0  0
  2  1  1  0  0  0  0
  3  2  2  0  0  0  0
  4  2  1  6  0  0  0
  4 10  5  0  0  0  0
  6  4  5  0  0  0  0
  6  7  5  0  0  0  0
  6 13  1  6  0  0  0
  7 12  1  0  0  0  0
  8  7  5  0  0  0  0
  8 11  1  6  0  0  0
  9  8  5  0  0  0  0
  9 15  1  0  0  0  0
 10  9  5  0  0  0  0
 10 14  1  6  0  0  0
 14 16  1  0  0  0  0
 17 11  3  0  0  0  0
 18 17  1  0  0  0  0
 18 20  2  0  0  0  0
 19 18  1  0  0  0  0
 21 19  1  0  0  0  0
M  END
