
 OpenBabel06022114453D

 57 59  0  0  1  0  0  0  0  0999 V2000
    0.8330   -1.1280    0.4930 O   0  0  0  0  0  0  0  0  0  0  0  0
   -0.2400   -0.4390    0.0470 C   0  0  0  0  0  0  0  0  0  0  0  0
   -1.2900   -1.0370   -0.1230 O   0  0  0  0  0  0  0  0  0  0  0  0
   -0.1910    1.0320   -0.2800 C   0  0  2  0  0  0  0  0  0  0  0  0
    1.7080   -0.7360    0.5990 H   0  0  0  0  0  0  0  0  0  0  0  0
    1.1070    1.8270    0.0120 C   0  0  0  0  0  0  0  0  0  0  0  0
    0.5240    3.0920    0.3570 N   0  0  0  0  0  0  0  0  0  0  0  0
   -0.7840    2.9260    0.6960 N   0  0  0  0  0  0  0  0  0  0  0  0
   -1.1960    1.7860    0.4340 N   0  0  0  0  0  0  0  0  0  0  0  0
    1.0570    4.3490    0.1300 C   0  0  0  0  0  0  0  0  0  0  0  0
    1.7990    1.8540   -0.8580 H   0  0  0  0  0  0  0  0  0  0  0  0
    1.6120    1.4580    0.9300 H   0  0  0  0  0  0  0  0  0  0  0  0
   -0.4360    1.1600   -1.3590 H   0  0  0  0  0  0  0  0  0  0  0  0
    1.3770    5.4980   -0.0290 C   0  0  0  0  0  0  0  0  0  0  0  0
   -0.4812    7.0925    0.0000 C   0  0  2  0  0  0  0  0  0  0  0  0
   -0.4610    7.1491    0.0000 C   0  0  1  0  0  0  0  0  0  0  0  0
   -0.3939    5.5416    0.0000 C   0  0  1  0  0  0  0  0  0  0  0  0
   -0.0436    9.4424    0.0000 C   0  0  1  0  0  0  0  0  0  0  0  0
    2.0799    7.3168    0.0000 C   0  0  1  0  0  0  0  0  0  0  0  0
    2.2999    7.0291    0.0000 C   0  0  2  0  0  0  0  0  0  0  0  0
    1.6090   10.0590    0.0000 C   0  0  1  0  0  0  0  0  0  0  0  0
   -0.3556    9.3199    0.0000 C   0  0  0  0  0  0  0  0  0  0  0  0
   -0.4610    7.1752    0.0000 C   0  0  0  0  0  0  0  0  0  0  0  0
    2.1853    7.0563    0.0000 C   0  0  0  0  0  0  0  0  0  0  0  0
    1.8605    7.9477    0.0000 O   0  0  0  0  0  0  0  0  0  0  0  0
    2.1527    7.0844    0.0000 H   0  0  0  0  0  0  0  0  0  0  0  0
    2.1723    7.0593    0.0000 H   0  0  0  0  0  0  0  0  0  0  0  0
    2.2239    7.0229    0.0000 H   0  0  0  0  0  0  0  0  0  0  0  0
    2.2121    7.0499    0.0000 O   0  0  0  0  0  0  0  0  0  0  0  0
    1.7796    8.1843    0.0000 H   0  0  0  0  0  0  0  0  0  0  0  0
   -0.3553    9.3198    0.0000 C   0  0  0  0  0  0  0  0  0  0  0  0
   -0.3543    9.3196    0.0000 H   0  0  0  0  0  0  0  0  0  0  0  0
   -0.3551    9.3198    0.0000 H   0  0  0  0  0  0  0  0  0  0  0  0
   -0.3564    9.3200    0.0000 H   0  0  0  0  0  0  0  0  0  0  0  0
   -0.3541    9.3197    0.0000 H   0  0  0  0  0  0  0  0  0  0  0  0
   -0.3572    9.3202    0.0000 H   0  0  0  0  0  0  0  0  0  0  0  0
   -0.4610    7.1847    0.0000 C   0  0  0  0  0  0  0  0  0  0  0  0
   -0.4620    7.1994    0.0000 H   0  0  0  0  0  0  0  0  0  0  0  0
   -0.4610    7.1895    0.0000 H   0  0  0  0  0  0  0  0  0  0  0  0
   -0.4600    7.1698    0.0000 H   0  0  0  0  0  0  0  0  0  0  0  0
   -0.4625    7.1969    0.0000 H   0  0  0  0  0  0  0  0  0  0  0  0
   -0.4596    7.1532    0.0000 H   0  0  0  0  0  0  0  0  0  0  0  0
    1.7027   11.6628    0.0000 C   0  0  0  0  0  0  0  0  0  0  0  0
    3.2906   12.3261    0.0000 C   0  0  0  0  0  0  0  0  0  0  0  0
    4.6731   11.3303    0.0000 C   0  0  1  0  0  0  0  0  0  0  0  0
    4.3976    9.6986    0.0000 C   0  0  0  0  0  0  0  0  0  0  0  0
    2.6985    8.9632    0.0000 C   0  0  0  0  0  0  0  0  0  0  0  0
    6.2430   11.6819    0.0000 N   0  0  0  0  0  0  0  0  0  0  0  0
    3.7290   13.8570    0.0000 H   0  0  0  0  0  0  0  0  0  0  0  0
    0.4817   12.5019    0.0000 H   0  0  0  0  0  0  0  0  0  0  0  0
    2.6766    7.1564    0.0000 H   0  0  0  0  0  0  0  0  0  0  0  0
    5.8858    8.6068    0.0000 H   0  0  0  0  0  0  0  0  0  0  0  0
    6.2041   12.5870    0.0000 N   0  0  0  0  0  0  0  0  0  0  0  0
    6.2638   13.3731    0.0000 C   0  0  0  0  0  0  0  0  0  0  0  0
    4.5871   14.8860    0.0000 O   0  0  0  0  0  0  0  0  0  0  0  0
    7.5745   14.6621    0.0000 O   0  0  0  0  0  0  0  0  0  0  0  0
    4.4784   16.3962    0.0000 H   0  0  0  0  0  0  0  0  0  0  0  0
  1  5  1  0  0  0  0
  2  1  1  0  0  0  0
  3  2  2  0  0  0  0
  4  2  1  0  0  0  0
  4  9  1  0  0  0  0
  4 13  1  6  0  0  0
  6  4  1  0  0  0  0
  6 11  1  0  0  0  0
  6 12  1  0  0  0  0
  7  6  1  0  0  0  0
  8  7  1  0  0  0  0
  9  8  2  0  0  0  0
 10  7  1  0  0  0  0
 14 10  3  0  0  0  0
 15 14  1  6  0  0  0
 15 20  5  0  0  0  0
 16 15  5  0  0  0  0
 16 17  5  0  0  0  0
 16 23  1  6  0  0  0
 17 22  1  1  0  0  0
 18 17  5  0  0  0  0
 18 21  1  6  0  0  0
 19 18  5  0  0  0  0
 19 25  1  6  0  0  0
 20 19  5  0  0  0  0
 20 29  1  6  0  0  0
 21 43  5  1  0  0  0
 21 47  5  0  0  0  0
 22 35  1  0  0  0  0
 22 36  1  0  0  0  0
 23 41  1  0  0  0  0
 23 42  1  0  0  0  0
 24 26  1  0  0  0  0
 24 27  1  0  0  0  0
 24 28  1  0  0  0  0
 24 29  1  0  0  0  0
 25 30  1  0  0  0  0
 31 32  1  0  0  0  0
 31 33  1  0  0  0  0
 31 34  1  0  0  0  0
 31 22  1  0  0  0  0
 37 38  1  0  0  0  0
 37 39  1  0  0  0  0
 37 40  1  0  0  0  0
 37 23  1  0  0  0  0
 43 44  5  0  0  0  0
 43 50  1  0  0  0  0
 44 49  1  0  0  0  0
 45 44  5  0  0  0  0
 45 48  1  6  0  0  0
 46 45  5  0  0  0  0
 46 52  1  0  0  0  0
 47 46  5  0  0  0  0
 47 51  1  0  0  0  0
 53 48  2  0  0  0  0
 54 53  1  0  0  0  0
 54 56  2  0  0  0  0
 55 54  1  0  0  0  0
 57 55  1  0  0  0  0
M  END
