
 OpenBabel06022114443D

 31 32  0  0  1  0  0  0  0  0999 V2000
    0.9840   -0.8510   -0.5150 O   0  0  0  0  0  0  0  0  0  0  0  0
   -0.0560   -0.2890    0.1400 C   0  0  0  0  0  0  0  0  0  0  0  0
   -1.0130   -0.9860    0.4380 O   0  0  0  0  0  0  0  0  0  0  0  0
   -0.0580    1.1710    0.5210 C   0  0  1  0  0  0  0  0  0  0  0  0
    1.7720   -0.3510   -0.7700 H   0  0  0  0  0  0  0  0  0  0  0  0
    1.1260    1.8410    0.1230 O   0  0  0  0  0  0  0  0  0  0  0  0
   -0.7230    3.3090    0.0690 C   0  0  0  0  0  0  0  0  0  0  0  0
   -1.2170    1.9140   -0.1210 C   0  0  0  0  0  0  0  0  0  0  0  0
    1.7310    4.2420    0.1130 C   0  0  2  0  0  0  0  0  0  0  0  0
   -2.2110    1.7030    0.3290 H   0  0  0  0  0  0  0  0  0  0  0  0
   -0.7630    3.5550    1.1560 H   0  0  0  0  0  0  0  0  0  0  0  0
   -1.2890    4.0710   -0.5080 H   0  0  0  0  0  0  0  0  0  0  0  0
   -1.2530    1.6930   -1.2140 H   0  0  0  0  0  0  0  0  0  0  0  0
    0.7520    3.0590   -1.4830 H   0  0  0  0  0  0  0  0  0  0  0  0
    0.7350    3.1200   -0.3660 C   0  0  1  0  0  0  0  0  0  0  0  0
   -0.1330    1.2540    1.6300 H   0  0  0  0  0  0  0  0  0  0  0  0
    1.3800    5.4090   -0.2730 C   0  0  2  0  0  0  0  0  0  0  0  0
    2.2520    6.2960   -0.0580 C   0  0  0  0  0  0  0  0  0  0  0  0
    3.3950    5.9690   -0.4630 C   0  0  2  0  0  0  0  0  0  0  0  0
    3.7680    4.8480   -0.0350 C   0  0  0  0  0  0  0  0  0  0  0  0
    2.9150    3.9440   -0.2570 C   0  0  0  0  0  0  0  0  0  0  0  0
    3.9020    6.5030    0.0000 C   0  0  0  0  0  0  0  0  0  0  0  0
    1.9570    7.2630   -0.5180 H   0  0  0  0  0  0  0  0  0  0  0  0
    0.2120    5.8110    0.3550 F   0  0  0  0  0  0  0  0  0  0  0  0
    3.2690    2.9810    0.1790 H   0  0  0  0  0  0  0  0  0  0  0  0
    4.0300    4.9120    1.0540 H   0  0  0  0  0  0  0  0  0  0  0  0
    3.8768    7.8535    0.0000 C   0  0  0  0  0  0  0  0  0  0  0  0
    3.9609    8.8709    0.0000 C   0  0  0  0  0  0  0  0  0  0  0  0
    2.2843   10.3838    0.0000 O   0  0  0  0  0  0  0  0  0  0  0  0
    5.2717   10.1599    0.0000 O   0  0  0  0  0  0  0  0  0  0  0  0
    2.1756   11.8940    0.0000 H   0  0  0  0  0  0  0  0  0  0  0  0
  1  5  1  0  0  0  0
  2  1  1  0  0  0  0
  3  2  2  0  0  0  0
  4  2  1  0  0  0  0
  4  8  1  0  0  0  0
  4 16  1  1  0  0  0
  6  4  1  0  0  0  0
  7 15  1  0  0  0  0
  7 12  1  0  0  0  0
  8  7  1  0  0  0  0
  8 13  1  0  0  0  0
  9 15  1  0  0  0  0
  9 21  5  6  0  0  0
 10  8  1  0  0  0  0
 11  7  1  0  0  0  0
 15  6  1  0  0  0  0
 15 14  1  6  0  0  0
 17  9  5  0  0  0  0
 17 18  5  0  0  0  0
 17 24  1  1  0  0  0
 18 23  1  0  0  0  0
 19 18  5  0  0  0  0
 19 22  1  1  0  0  0
 20 19  5  0  0  0  0
 20 26  1  0  0  0  0
 21 20  5  0  0  0  0
 21 25  1  0  0  0  0
 27 22  3  0  0  0  0
 28 27  1  0  0  0  0
 28 30  2  0  0  0  0
 29 28  1  0  0  0  0
 31 29  1  0  0  0  0
M  END
