
 OpenBabel06022114403D

 43 44  0  0  1  0  0  0  0  0999 V2000
    0.3030   -0.7250    0.3000 O   0  0  0  0  0  0  0  0  0  0  0  0
   -0.5200    0.2890   -0.0380 C   0  0  0  0  0  0  0  0  0  0  0  0
   -1.5570    0.0410   -0.6330 O   0  0  0  0  0  0  0  0  0  0  0  0
   -0.1820    1.7080    0.3430 C   0  0  1  0  0  0  0  0  0  0  0  0
    1.1180   -0.5690    0.7980 H   0  0  0  0  0  0  0  0  0  0  0  0
    1.0830    2.2390   -0.2990 C   0  0  0  0  0  0  0  0  0  0  0  0
    0.8550    3.7090   -0.0020 C   0  0  2  0  0  0  0  0  0  0  0  0
   -0.5710    3.8920   -0.3230 N   0  0  0  0  0  0  0  0  0  0  0  0
   -1.2140    2.6550   -0.0800 N   0  0  0  0  0  0  0  0  0  0  0  0
    1.7670    4.7650   -0.7620 C   0  0  1  0  0  0  0  0  0  0  0  0
   -1.9190    2.7880    0.6810 H   0  0  0  0  0  0  0  0  0  0  0  0
   -0.6630    4.0560   -1.3540 H   0  0  0  0  0  0  0  0  0  0  0  0
    2.0210    1.8060    0.1090 H   0  0  0  0  0  0  0  0  0  0  0  0
    0.9770    3.8470    1.1000 H   0  0  0  0  0  0  0  0  0  0  0  0
    1.0350    2.0790   -1.4000 H   0  0  0  0  0  0  0  0  0  0  0  0
   -0.0780    1.7620    1.4540 H   0  0  0  0  0  0  0  0  0  0  0  0
    1.4590    7.4787    0.0000 C   0  0  0  0  0  0  0  0  0  0  0  0
    1.5003    7.4145    0.0000 C   0  0  1  0  0  0  0  0  0  0  0  0
    1.5084    7.4098    0.0000 C   0  0  1  0  0  0  0  0  0  0  0  0
    3.4820    5.0810    0.4870 C   0  0  1  0  0  0  0  0  0  0  0  0
    3.0190    4.6120   -0.6010 C   0  0  0  0  0  0  0  0  0  0  0  0
    3.2259    6.1344    0.0000 N   0  0  0  0  0  0  0  0  0  0  0  0
    1.5009    7.4132    0.0000 C   0  0  0  0  0  0  0  0  0  0  0  0
    0.3420    6.1570   -0.7060 H   0  0  0  0  0  0  0  0  0  0  0  0
    3.3670    3.5730   -0.8020 H   0  0  0  0  0  0  0  0  0  0  0  0
    5.4860    6.1180   -0.3260 C   0  0  0  0  0  0  0  0  0  0  0  0
    4.7760    6.5710   -1.0580 H   0  0  0  0  0  0  0  0  0  0  0  0
    5.8690    6.9290    0.3290 H   0  0  0  0  0  0  0  0  0  0  0  0
    6.3210    5.7020   -0.9250 H   0  0  0  0  0  0  0  0  0  0  0  0
    4.9130    5.0860    0.4830 O   0  0  0  0  0  0  0  0  0  0  0  0
    3.1870    7.0395    0.0000 N   0  0  0  0  0  0  0  0  0  0  0  0
    3.2077    8.0592    0.0000 C   0  0  0  0  0  0  0  0  0  0  0  0
    1.5011    7.4128    0.0000 C   0  0  0  0  0  0  0  0  0  0  0  0
    1.5019    7.4117    0.0000 H   0  0  0  0  0  0  0  0  0  0  0  0
    1.5012    7.4125    0.0000 H   0  0  0  0  0  0  0  0  0  0  0  0
    1.5003    7.4139    0.0000 H   0  0  0  0  0  0  0  0  0  0  0  0
    1.5020    7.4116    0.0000 H   0  0  0  0  0  0  0  0  0  0  0  0
    1.4997    7.4149    0.0000 H   0  0  0  0  0  0  0  0  0  0  0  0
    3.1826    9.4098    0.0000 C   0  0  0  0  0  0  0  0  0  0  0  0
    3.2666   10.4271    0.0000 C   0  0  0  0  0  0  0  0  0  0  0  0
    1.5900   11.9400    0.0000 O   0  0  0  0  0  0  0  0  0  0  0  0
    4.5774   11.7161    0.0000 O   0  0  0  0  0  0  0  0  0  0  0  0
    1.4813   13.4502    0.0000 H   0  0  0  0  0  0  0  0  0  0  0  0
  1  5  1  0  0  0  0
  2  1  1  0  0  0  0
  3  2  2  0  0  0  0
  4  2  1  0  0  0  0
  4  9  1  0  0  0  0
  4 16  1  1  0  0  0
  6  4  1  0  0  0  0
  6 13  1  0  0  0  0
  6 15  1  0  0  0  0
  7  6  1  0  0  0  0
  7 14  1  1  0  0  0
  8  7  1  0  0  0  0
  9  8  1  0  0  0  0
 10  7  1  0  0  0  0
 10 17  5  1  0  0  0
 10 21  5  0  0  0  0
 11  9  1  0  0  0  0
 12  8  1  0  0  0  0
 17 18  5  0  0  0  0
 17 24  1  0  0  0  0
 18 23  1  1  0  0  0
 19 18  5  0  0  0  0
 19 22  1  6  0  0  0
 20 19  5  0  0  0  0
 20 30  1  6  0  0  0
 21 20  5  0  0  0  0
 21 25  1  0  0  0  0
 23 37  1  0  0  0  0
 23 38  1  0  0  0  0
 26 27  1  0  0  0  0
 26 28  1  0  0  0  0
 26 29  1  0  0  0  0
 26 30  1  0  0  0  0
 31 22  2  0  0  0  0
 32 31  1  0  0  0  0
 33 34  1  0  0  0  0
 33 35  1  0  0  0  0
 33 36  1  0  0  0  0
 33 23  1  0  0  0  0
 39 32  3  0  0  0  0
 40 39  1  0  0  0  0
 40 42  2  0  0  0  0
 41 40  1  0  0  0  0
 43 41  1  0  0  0  0
M  END
