
 OpenBabel06022114413D

 38 39  0  0  1  0  0  0  0  0999 V2000
    0.8310   -0.4950   -0.0600 O   0  0  0  0  0  0  0  0  0  0  0  0
   -0.0150    0.5160   -0.3460 C   0  0  0  0  0  0  0  0  0  0  0  0
   -0.9730    0.3070   -1.0740 O   0  0  0  0  0  0  0  0  0  0  0  0
    0.1990    1.8780    0.2580 C   0  0  1  0  0  0  0  0  0  0  0  0
    1.5770   -0.3730    0.5430 H   0  0  0  0  0  0  0  0  0  0  0  0
    1.4810    2.5550   -0.1800 C   0  0  0  0  0  0  0  0  0  0  0  0
    1.1300    3.9280    0.3250 C   0  0  2  0  0  0  0  0  0  0  0  0
   -0.2680    4.1210   -0.0750 N   0  0  0  0  0  0  0  0  0  0  0  0
   -0.8470    2.8320   -0.1230 N   0  0  0  0  0  0  0  0  0  0  0  0
    1.9630    5.0510   -0.1120 C   0  0  0  0  0  0  0  0  0  0  0  0
   -1.6380    2.7950    0.5600 H   0  0  0  0  0  0  0  0  0  0  0  0
   -0.3020    4.4840   -1.0580 H   0  0  0  0  0  0  0  0  0  0  0  0
    2.4130    2.1200    0.2410 H   0  0  0  0  0  0  0  0  0  0  0  0
    1.1710    3.9210    1.4390 H   0  0  0  0  0  0  0  0  0  0  0  0
    1.5320    2.5710   -1.2930 H   0  0  0  0  0  0  0  0  0  0  0  0
    0.1990    1.7730    1.3710 H   0  0  0  0  0  0  0  0  0  0  0  0
    2.4540    6.1310   -0.2980 C   0  0  0  0  0  0  0  0  0  0  0  0
    2.7740    7.4990   -0.3100 C   0  0  0  0  0  0  0  0  0  0  0  0
    2.9030    8.6750   -0.1030 C   0  0  0  0  0  0  0  0  0  0  0  0
    2.8300   10.0860    0.2750 C   0  0  1  0  0  0  0  0  0  0  0  0
    4.0310   10.9020   -0.0810 C   0  0  0  0  0  0  0  0  0  0  0  0
    3.4160   12.2490    0.1790 C   0  0  2  0  0  0  0  0  0  0  0  0
    2.0460   12.1610   -0.3290 N   0  0  0  0  0  0  0  0  0  0  0  0
    1.7450   10.7790   -0.4130 N   0  0  0  0  0  0  0  0  0  0  0  0
    3.8010   12.7870    0.0000 C   0  0  0  0  0  0  0  0  0  0  0  0
    0.8290   10.5930    0.0570 H   0  0  0  0  0  0  0  0  0  0  0  0
    2.0460   12.5320   -1.3050 H   0  0  0  0  0  0  0  0  0  0  0  0
    4.2260   10.8070   -1.1720 H   0  0  0  0  0  0  0  0  0  0  0  0
    3.3980   12.4990    1.2630 H   0  0  0  0  0  0  0  0  0  0  0  0
    4.9550   10.6910    0.4970 H   0  0  0  0  0  0  0  0  0  0  0  0
    2.6570   10.1320    1.3780 H   0  0  0  0  0  0  0  0  0  0  0  0
    3.8474   14.2887    0.0000 C   0  0  0  0  0  0  0  0  0  0  0  0
    3.9645   15.2285    0.0000 C   0  0  0  0  0  0  0  0  0  0  0  0
    2.1204   14.3748    0.0000 H   0  0  0  0  0  0  0  0  0  0  0  0
    4.8544   12.8022    0.0000 H   0  0  0  0  0  0  0  0  0  0  0  0
    2.2878   16.7414    0.0000 O   0  0  0  0  0  0  0  0  0  0  0  0
    5.2753   16.5175    0.0000 O   0  0  0  0  0  0  0  0  0  0  0  0
    2.1791   18.2516    0.0000 H   0  0  0  0  0  0  0  0  0  0  0  0
  1  5  1  0  0  0  0
  2  1  1  0  0  0  0
  3  2  2  0  0  0  0
  4  2  1  0  0  0  0
  4  9  1  0  0  0  0
  4 16  1  1  0  0  0
  6  4  1  0  0  0  0
  6 13  1  0  0  0  0
  6 15  1  0  0  0  0
  7  6  1  0  0  0  0
  7 14  1  1  0  0  0
  8  7  1  0  0  0  0
  9  8  1  0  0  0  0
 10  7  1  0  0  0  0
 11  9  1  0  0  0  0
 12  8  1  0  0  0  0
 17 10  3  0  0  0  0
 18 17  1  0  0  0  0
 19 18  3  0  0  0  0
 20 19  1  0  0  0  0
 20 24  1  0  0  0  0
 20 31  1  1  0  0  0
 21 20  1  0  0  0  0
 21 28  1  0  0  0  0
 21 30  1  0  0  0  0
 22 21  1  0  0  0  0
 22 29  1  1  0  0  0
 23 22  1  0  0  0  0
 24 23  1  0  0  0  0
 25 22  1  0  0  0  0
 25 35  1  0  0  0  0
 26 24  1  0  0  0  0
 27 23  1  0  0  0  0
 32 25  2  0  0  0  0
 32 34  1  0  0  0  0
 33 32  1  0  0  0  0
 33 37  2  0  0  0  0
 36 33  1  0  0  0  0
 38 36  1  0  0  0  0
M  END
