
 OpenBabel07202118373D

 41 43  0  0  1  0  0  0  0  0999 V2000
    1.2116    0.6995    0.0000 O   0  0  0  0  0  0  0  0  0  0  0  0
    0.0000    1.3990    0.0000 C   0  0  0  0  0  0  0  0  0  0  0  0
   -1.2116    0.6995    0.0000 O   0  0  0  0  0  0  0  0  0  0  0  0
    0.0389    2.5644    0.0000 N   0  0  0  0  0  0  0  0  0  0  0  0
    2.5032    0.4173    0.0000 H   0  0  0  0  0  0  0  0  0  0  0  0
    0.0002    3.4925    0.0000 N   0  0  0  0  0  0  0  0  0  0  0  0
    0.0207    4.4892    0.0000 C   0  0  1  0  0  0  0  0  0  0  0  0
    0.7086    4.9830    0.0000 C   0  0  0  0  0  0  0  0  0  0  0  0
    0.4905    5.6885    0.0000 N   0  0  0  0  0  0  0  0  0  0  0  0
   -0.3387    5.6948    0.0000 N   0  0  0  0  0  0  0  0  0  0  0  0
   -0.6255    4.9765    0.0000 N   0  0  0  0  0  0  0  0  0  0  0  0
    0.5038    6.5521    0.0000 C   0  0  0  0  0  0  0  0  0  0  0  0
    1.7196    5.1413    0.0000 H   0  0  0  0  0  0  0  0  0  0  0  0
    0.9913    4.0676    0.0000 H   0  0  0  0  0  0  0  0  0  0  0  0
   -0.7367    4.2100    0.0000 H   0  0  0  0  0  0  0  0  0  0  0  0
    0.5517    8.0803    0.0000 C   0  0  0  0  0  0  0  0  0  0  0  0
    0.6284    9.2272    0.0000 C   0  0  1  0  0  0  0  0  0  0  0  0
   -1.1768    8.1399    0.0000 H   0  0  0  0  0  0  0  0  0  0  0  0
    1.5572    6.5673    0.0000 H   0  0  0  0  0  0  0  0  0  0  0  0
    1.4470    9.7593    0.0000 C   0  0  0  0  0  0  0  0  0  0  0  0
    1.2127   10.5848    0.0000 N   0  0  0  0  0  0  0  0  0  0  0  0
    0.2785   10.6348    0.0000 N   0  0  0  0  0  0  0  0  0  0  0  0
   -0.0900    9.8228    0.0000 N   0  0  0  0  0  0  0  0  0  0  0  0
    1.2945   11.5775    0.0000 C   0  0  1  0  0  0  0  0  0  0  0  0
    2.6198    9.8878    0.0000 H   0  0  0  0  0  0  0  0  0  0  0  0
    1.7238    8.6899    0.0000 H   0  0  0  0  0  0  0  0  0  0  0  0
   -0.2589    8.9459    0.0000 H   0  0  0  0  0  0  0  0  0  0  0  0
    2.1272   11.9737    0.0000 O   0  0  0  0  0  0  0  0  0  0  0  0
    1.0018   12.8512    0.0000 C   0  0  0  0  0  0  0  0  0  0  0  0
    0.6208   12.0237    0.0000 C   0  0  0  0  0  0  0  0  0  0  0  0
    1.9817   13.6173    0.0000 C   0  0  0  0  0  0  0  0  0  0  0  0
   -0.4354   12.0576    0.0000 H   0  0  0  0  0  0  0  0  0  0  0  0
    0.5886   13.8248    0.0000 H   0  0  0  0  0  0  0  0  0  0  0  0
   -0.3424   12.9535    0.0000 H   0  0  0  0  0  0  0  0  0  0  0  0
    0.1046   10.9076    0.0000 H   0  0  0  0  0  0  0  0  0  0  0  0
    3.2224   12.6347    0.0000 H   0  0  0  0  0  0  0  0  0  0  0  0
    1.8581   12.7917    0.0000 C   0  0  2  0  0  0  0  0  0  0  0  0
    2.1615   10.8833    0.0000 H   0  0  0  0  0  0  0  0  0  0  0  0
    0.3050   15.1302    0.0000 O   0  0  0  0  0  0  0  0  0  0  0  0
    3.2924   14.9063    0.0000 O   0  0  0  0  0  0  0  0  0  0  0  0
    0.1963   16.6404    0.0000 H   0  0  0  0  0  0  0  0  0  0  0  0
  1  5  1  0  0  0  0
  2  1  1  0  0  0  0
  3  2  2  0  0  0  0
  4  2  1  0  0  0  0
  6  4  2  0  0  0  0
  7  6  1  0  0  0  0
  7 11  1  0  0  0  0
  7 15  1  1  0  0  0
  8  7  1  0  0  0  0
  8 13  1  0  0  0  0
  8 14  1  0  0  0  0
  9  8  1  0  0  0  0
 10  9  1  0  0  0  0
 11 10  2  0  0  0  0
 12  9  1  0  0  0  0
 12 19  1  0  0  0  0
 16 12  2  3  0  0  0
 16 18  1  0  0  0  0
 17 16  1  0  0  0  0
 17 23  1  0  0  0  0
 17 27  1  1  0  0  0
 20 17  1  0  0  0  0
 20 25  1  0  0  0  0
 20 26  1  0  0  0  0
 21 20  1  0  0  0  0
 22 21  1  0  0  0  0
 23 22  2  0  0  0  0
 24 21  1  0  0  0  0
 24 30  1  0  0  0  0
 24 38  1  1  0  0  0
 28 24  1  0  0  0  0
 29 37  1  0  0  0  0
 29 34  1  0  0  0  0
 30 29  1  0  0  0  0
 30 35  1  0  0  0  0
 31 37  1  0  0  0  0
 31 40  2  0  0  0  0
 32 30  1  0  0  0  0
 33 29  1  0  0  0  0
 37 28  1  0  0  0  0
 37 36  1  1  0  0  0
 39 31  1  0  0  0  0
 41 39  1  0  0  0  0
M  END
