
 OpenBabel06022113263D

 40 42  0  0  1  0  0  0  0  0999 V2000
    0.7580   -0.8350    0.2840 O   0  0  0  0  0  0  0  0  0  0  0  0
   -0.2050    0.1070    0.2100 C   0  0  0  0  0  0  0  0  0  0  0  0
   -1.3750   -0.2300    0.3120 O   0  0  0  0  0  0  0  0  0  0  0  0
    0.1580    1.5310    0.0030 C   0  0  0  0  0  0  0  0  0  0  0  0
    1.6960   -0.6110    0.2080 H   0  0  0  0  0  0  0  0  0  0  0  0
   -0.7740    2.4980   -0.0810 C   0  0  0  0  0  0  0  0  0  0  0  0
   -0.4890    3.9660   -0.3050 C   0  0  2  0  0  0  0  0  0  0  0  0
   -1.8240    2.2280   -0.0020 H   0  0  0  0  0  0  0  0  0  0  0  0
    1.2110    1.7630   -0.0900 H   0  0  0  0  0  0  0  0  0  0  0  0
    0.9760    4.4500   -0.3600 C   0  0  0  0  0  0  0  0  0  0  0  0
    0.8490    5.7390    0.2640 N   0  0  0  0  0  0  0  0  0  0  0  0
   -0.3370    5.7890    0.9490 N   0  0  0  0  0  0  0  0  0  0  0  0
   -1.0620    4.8070    0.7200 N   0  0  0  0  0  0  0  0  0  0  0  0
    1.6740    6.9060   -0.0570 C   0  0  1  0  0  0  0  0  0  0  0  0
    1.3860    4.4730   -1.3920 H   0  0  0  0  0  0  0  0  0  0  0  0
    1.6280    3.8630    0.3210 H   0  0  0  0  0  0  0  0  0  0  0  0
   -0.9870    4.2680   -1.2540 H   0  0  0  0  0  0  0  0  0  0  0  0
    1.1670    7.9850    0.3850 C   0  0  0  0  0  0  0  0  0  0  0  0
    1.9000    8.9980    0.2000 C   0  0  0  0  0  0  0  0  0  0  0  0
    3.1499    8.9052    0.0000 C   0  0  2  0  0  0  0  0  0  0  0  0
    3.5970    7.7510    0.1410 C   0  0  0  0  0  0  0  0  0  0  0  0
    2.8690    6.7380    0.3330 C   0  0  0  0  0  0  0  0  0  0  0  0
    3.5170    9.4100    0.0000 C   0  0  1  0  0  0  0  0  0  0  0  0
    1.8960    9.3180   -0.8760 H   0  0  0  0  0  0  0  0  0  0  0  0
    0.1500    8.1650   -0.0380 H   0  0  0  0  0  0  0  0  0  0  0  0
    3.3290    5.8550   -0.1680 H   0  0  0  0  0  0  0  0  0  0  0  0
    4.6060    7.6070    0.5820 H   0  0  0  0  0  0  0  0  0  0  0  0
    3.2313    9.9015    0.0000 C   0  0  0  0  0  0  0  0  0  0  0  0
    3.5703   10.4074    0.0000 C   0  0  0  0  0  0  0  0  0  0  0  0
    4.1727   10.3837    0.0000 C   0  0  1  0  0  0  0  0  0  0  0  0
    4.4102    9.8485    0.0000 C   0  0  0  0  0  0  0  0  0  0  0  0
    4.0525    9.2995    0.0000 C   0  0  0  0  0  0  0  0  0  0  0  0
    4.5490   10.6218    0.0000 C   0  0  0  0  0  0  0  0  0  0  0  0
    3.4005   10.9447    0.0000 H   0  0  0  0  0  0  0  0  0  0  0  0
    2.7072    9.9105    0.0000 H   0  0  0  0  0  0  0  0  0  0  0  0
    4.3990    8.7622    0.0000 H   0  0  0  0  0  0  0  0  0  0  0  0
    5.0625    9.8171    0.0000 H   0  0  0  0  0  0  0  0  0  0  0  0
    2.8724   12.1348    0.0000 O   0  0  0  0  0  0  0  0  0  0  0  0
    5.8598   11.9109    0.0000 O   0  0  0  0  0  0  0  0  0  0  0  0
    2.7637   13.6449    0.0000 H   0  0  0  0  0  0  0  0  0  0  0  0
  1  5  1  0  0  0  0
  2  1  1  0  0  0  0
  3  2  2  0  0  0  0
  4  2  1  0  0  0  0
  4  9  1  0  0  0  0
  6  4  2  0  0  0  0
  6  8  1  0  0  0  0
  7  6  1  0  0  0  0
  7 13  1  0  0  0  0
  7 17  1  6  0  0  0
 10  7  1  0  0  0  0
 10 15  1  0  0  0  0
 10 16  1  0  0  0  0
 11 10  1  0  0  0  0
 12 11  1  0  0  0  0
 13 12  2  0  0  0  0
 14 11  1  1  0  0  0
 14 22  5  0  0  0  0
 18 14  5  0  0  0  0
 18 19  5  0  0  0  0
 18 25  1  0  0  0  0
 19 24  1  0  0  0  0
 20 19  5  1  0  0  0
 20 23  1  0  0  0  0
 21 20  5  0  0  0  0
 21 27  1  0  0  0  0
 22 21  5  0  0  0  0
 22 26  1  0  0  0  0
 23 28  5  1  0  0  0
 23 32  5  0  0  0  0
 28 29  5  0  0  0  0
 28 35  1  0  0  0  0
 29 34  1  0  0  0  0
 30 29  5  0  0  0  0
 30 33  1  6  0  0  0
 31 30  5  0  0  0  0
 31 37  1  0  0  0  0
 32 31  5  0  0  0  0
 32 36  1  0  0  0  0
 33 39  2  0  0  0  0
 38 33  1  0  0  0  0
 40 38  1  0  0  0  0
M  END
