
 OpenBabel07202119123D

 10  9  0  0  0  0  0  0  0  0999 V2000
    1.2116    0.6995    0.0000 O   0  0  0  0  0  0  0  0  0  0  0  0
    0.0000    1.3990    0.0000 C   0  0  0  0  0  0  0  0  0  0  0  0
   -1.2116    0.6995    0.0000 O   0  0  0  0  0  0  0  0  0  0  0  0
    0.0389    2.5644    0.0000 N   0  0  0  0  0  0  0  0  0  0  0  0
    2.5032    0.4173    0.0000 H   0  0  0  0  0  0  0  0  0  0  0  0
    0.0000    3.4695    0.0000 N   0  0  0  0  0  0  0  0  0  0  0  0
    0.0597    4.2557    0.0000 C   0  0  0  0  0  0  0  0  0  0  0  0
   -1.6170    5.7686    0.0000 O   0  0  0  0  0  0  0  0  0  0  0  0
    1.3704    5.5447    0.0000 O   0  0  0  0  0  0  0  0  0  0  0  0
   -1.7257    7.2787    0.0000 H   0  0  0  0  0  0  0  0  0  0  0  0
  1  5  1  0  0  0  0
  2  1  1  0  0  0  0
  3  2  2  0  0  0  0
  4  2  1  0  0  0  0
  6  4  2  0  0  0  0
  7  6  1  0  0  0  0
  7  9  2  0  0  0  0
  8  7  1  0  0  0  0
 10  8  1  0  0  0  0
M  END
