
 OpenBabel08062109563D

 37 38  0  0  1  0  0  0  0  0999 V2000
    0.8580   -0.6950   -0.2680 O   0  0  0  0  0  0  0  0  0  0  0  0
   -0.0440    0.2730   -0.5340 C   0  0  0  0  0  0  0  0  0  0  0  0
   -0.9490    0.0460   -1.3210 O   0  0  0  0  0  0  0  0  0  0  0  0
    0.0350    1.6010    0.1730 C   0  0  1  0  0  0  0  0  0  0  0  0
    1.5640   -0.5640    0.3800 H   0  0  0  0  0  0  0  0  0  0  0  0
    1.2860    2.4070   -0.1220 C   0  0  0  0  0  0  0  0  0  0  0  0
    0.7920    3.7000    0.4790 C   0  0  2  0  0  0  0  0  0  0  0  0
   -0.5760    3.8300   -0.0290 N   0  0  0  0  0  0  0  0  0  0  0  0
   -1.0580    2.5080   -0.1990 N   0  0  0  0  0  0  0  0  0  0  0  0
    1.5810    4.9240    0.2690 C   0  0  0  0  0  0  0  0  0  0  0  0
   -1.8740    2.3660    0.4400 H   0  0  0  0  0  0  0  0  0  0  0  0
   -0.5450    4.2460   -0.9910 H   0  0  0  0  0  0  0  0  0  0  0  0
    2.2190    2.0000    0.3240 H   0  0  0  0  0  0  0  0  0  0  0  0
    0.7370    3.5740    1.5850 H   0  0  0  0  0  0  0  0  0  0  0  0
    1.4060    2.5250   -1.2240 H   0  0  0  0  0  0  0  0  0  0  0  0
   -0.0200    1.4040    1.2720 H   0  0  0  0  0  0  0  0  0  0  0  0
    2.0730    6.0240    0.2800 C   0  0  0  0  0  0  0  0  0  0  0  0
    2.4570    7.4300    0.3840 C   0  0  1  0  0  0  0  0  0  0  0  0
    3.9500    7.7080    0.2470 C   0  0  0  0  0  0  0  0  0  0  0  0
    3.9030    8.9340   -0.4360 N   0  0  0  0  0  0  0  0  0  0  0  0
    2.6590    9.1370   -0.9740 N   0  0  0  0  0  0  0  0  0  0  0  0
    1.8490    8.2770   -0.6140 N   0  0  0  0  0  0  0  0  0  0  0  0
    4.6270    9.9870    0.0020 N   0  0  0  0  0  0  0  0  0  0  0  0
    4.4420    7.0360   -0.4700 H   0  0  0  0  0  0  0  0  0  0  0  0
    4.4960    7.7580    1.2160 H   0  0  0  0  0  0  0  0  0  0  0  0
    2.1100    7.8200    1.3630 H   0  0  0  0  0  0  0  0  0  0  0  0
    4.2710   11.0660   -0.4360 N   0  0  0  0  0  0  0  0  0  0  0  0
    4.7140   12.2400   -0.0190 C   0  0  0  0  0  0  0  0  0  0  0  0
    4.7680   13.3980    0.0250 C   0  0  0  0  0  0  0  0  0  0  0  0
    4.8030   14.1150    0.0000 C   0  0  0  0  0  0  0  0  0  0  0  0
    4.8494   15.6167    0.0000 C   0  0  0  0  0  0  0  0  0  0  0  0
    4.9665   16.5565    0.0000 C   0  0  0  0  0  0  0  0  0  0  0  0
    3.1224   15.7028    0.0000 H   0  0  0  0  0  0  0  0  0  0  0  0
    5.8564   14.1302    0.0000 H   0  0  0  0  0  0  0  0  0  0  0  0
    3.2898   18.0694    0.0000 O   0  0  0  0  0  0  0  0  0  0  0  0
    6.2773   17.8455    0.0000 O   0  0  0  0  0  0  0  0  0  0  0  0
    3.1811   19.5796    0.0000 H   0  0  0  0  0  0  0  0  0  0  0  0
  1  5  1  0  0  0  0
  2  1  1  0  0  0  0
  3  2  2  0  0  0  0
  4  2  1  0  0  0  0
  4  9  1  0  0  0  0
  4 16  1  1  0  0  0
  6  4  1  0  0  0  0
  6 13  1  0  0  0  0
  6 15  1  0  0  0  0
  7  6  1  0  0  0  0
  7 14  1  1  0  0  0
  8  7  1  0  0  0  0
  9  8  1  0  0  0  0
 10  7  1  0  0  0  0
 11  9  1  0  0  0  0
 12  8  1  0  0  0  0
 17 10  3  0  0  0  0
 18 17  1  0  0  0  0
 18 22  1  0  0  0  0
 18 26  1  1  0  0  0
 19 18  1  0  0  0  0
 19 24  1  0  0  0  0
 19 25  1  0  0  0  0
 20 19  1  0  0  0  0
 21 20  1  0  0  0  0
 22 21  2  0  0  0  0
 23 20  1  0  0  0  0
 27 23  2  0  0  0  0
 28 27  1  0  0  0  0
 29 28  3  0  0  0  0
 30 29  1  0  0  0  0
 30 34  1  0  0  0  0
 31 30  2  0  0  0  0
 31 33  1  0  0  0  0
 32 31  1  0  0  0  0
 32 36  2  0  0  0  0
 35 32  1  0  0  0  0
 37 35  1  0  0  0  0
M  END
