
 OpenBabel06022114423D

 45 47  0  0  1  0  0  0  0  0999 V2000
    1.1090   -1.1100   -0.0650 O   0  0  0  0  0  0  0  0  0  0  0  0
   -0.1110   -0.5730    0.1400 C   0  0  0  0  0  0  0  0  0  0  0  0
   -1.0870   -1.2960    0.2510 O   0  0  0  0  0  0  0  0  0  0  0  0
   -0.2540    0.8530    0.2380 C   0  0  0  0  0  0  0  0  0  0  0  0
    1.8940   -0.5480   -0.1500 H   0  0  0  0  0  0  0  0  0  0  0  0
   -0.2950    2.0510    0.3090 C   0  0  0  0  0  0  0  0  0  0  0  0
   -0.2480    3.5120    0.3790 C   0  0  1  0  0  0  0  0  0  0  0  0
    0.8800    4.1450   -0.4270 C   0  0  0  0  0  0  0  0  0  0  0  0
    0.1810    5.3940   -0.9480 C   0  0  1  0  0  0  0  0  0  0  0  0
   -1.0590    5.5270   -0.1770 N   0  0  0  0  0  0  0  0  0  0  0  0
   -1.4830    4.1930    0.0150 N   0  0  0  0  0  0  0  0  0  0  0  0
    1.0550    6.6610   -1.0620 C   0  0  2  0  0  0  0  0  0  0  0  0
   -1.8340    3.8330   -0.9080 H   0  0  0  0  0  0  0  0  0  0  0  0
   -0.8640    5.9450    0.7640 H   0  0  0  0  0  0  0  0  0  0  0  0
    1.7210    4.3400    0.2730 H   0  0  0  0  0  0  0  0  0  0  0  0
   -0.1830    5.1760   -1.9810 H   0  0  0  0  0  0  0  0  0  0  0  0
    1.2290    3.5450   -1.2960 H   0  0  0  0  0  0  0  0  0  0  0  0
   -0.0880    3.7780    1.4480 H   0  0  0  0  0  0  0  0  0  0  0  0
    1.9790    6.8860   -0.0030 O   0  0  0  0  0  0  0  0  0  0  0  0
    1.2730    8.9040   -1.0510 C   0  0  0  0  0  0  0  0  0  0  0  0
    0.1930    7.9100   -1.1210 C   0  0  0  0  0  0  0  0  0  0  0  0
    3.6240    8.7600   -0.0730 C   0  0  2  0  0  0  0  0  0  0  0  0
   -0.4610    8.0110   -2.0090 H   0  0  0  0  0  0  0  0  0  0  0  0
    0.9380    9.9410   -0.8380 H   0  0  0  0  0  0  0  0  0  0  0  0
    1.8090    8.8670   -2.0280 H   0  0  0  0  0  0  0  0  0  0  0  0
   -0.4160    8.0010   -0.1900 H   0  0  0  0  0  0  0  0  0  0  0  0
    1.7100    8.6390    1.0310 H   0  0  0  0  0  0  0  0  0  0  0  0
    2.1380    8.3070    0.0590 C   0  0  2  0  0  0  0  0  0  0  0  0
    1.6670    6.5370   -1.9910 H   0  0  0  0  0  0  0  0  0  0  0  0
    4.2460    8.6880    1.1990 O   0  0  0  0  0  0  0  0  0  0  0  0
    3.6740   10.9730    0.7220 C   0  0  0  0  0  0  0  0  0  0  0  0
    3.8050   10.2120   -0.5540 C   0  0  0  0  0  0  0  0  0  0  0  0
    4.2599    9.8824    0.0000 N   0  0  0  0  0  0  0  0  0  0  0  0
    3.1300   10.5690   -1.3600 H   0  0  0  0  0  0  0  0  0  0  0  0
    2.6080   10.9470    1.0280 H   0  0  0  0  0  0  0  0  0  0  0  0
    2.6090   10.9450    1.0290 H   0  0  0  0  0  0  0  0  0  0  0  0
    4.8350   10.3260   -0.9570 H   0  0  0  0  0  0  0  0  0  0  0  0
    5.5420   10.2630    1.5510 H   0  0  0  0  0  0  0  0  0  0  0  0
    4.4570   10.0340    1.6180 C   0  0  2  0  0  0  0  0  0  0  0  0
    4.1290    8.1040   -0.8170 H   0  0  0  0  0  0  0  0  0  0  0  0
    4.2210   10.7875    0.0000 N   0  0  0  0  0  0  0  0  0  0  0  0
    4.2807   11.5737    0.0000 C   0  0  0  0  0  0  0  0  0  0  0  0
    2.6040   13.0866    0.0000 O   0  0  0  0  0  0  0  0  0  0  0  0
    5.5914   12.8627    0.0000 O   0  0  0  0  0  0  0  0  0  0  0  0
    2.4953   14.5967    0.0000 H   0  0  0  0  0  0  0  0  0  0  0  0
  1  5  1  0  0  0  0
  2  1  1  0  0  0  0
  3  2  2  0  0  0  0
  4  2  1  0  0  0  0
  6  4  3  0  0  0  0
  7  6  1  0  0  0  0
  7 11  1  0  0  0  0
  7 18  1  1  0  0  0
  8  7  1  0  0  0  0
  8 15  1  0  0  0  0
  8 17  1  0  0  0  0
  9  8  1  0  0  0  0
  9 16  1  6  0  0  0
 10  9  1  0  0  0  0
 11 10  1  0  0  0  0
 12  9  1  0  0  0  0
 12 21  1  0  0  0  0
 12 29  1  6  0  0  0
 13 11  1  0  0  0  0
 14 10  1  0  0  0  0
 19 12  1  0  0  0  0
 20 28  1  0  0  0  0
 20 25  1  0  0  0  0
 21 20  1  0  0  0  0
 21 26  1  0  0  0  0
 22 28  1  0  0  0  0
 22 32  1  0  0  0  0
 22 40  1  6  0  0  0
 23 21  1  0  0  0  0
 24 20  1  0  0  0  0
 28 19  1  0  0  0  0
 28 27  1  1  0  0  0
 30 22  1  0  0  0  0
 31 39  1  0  0  0  0
 31 36  1  0  0  0  0
 32 31  1  0  0  0  0
 32 37  1  0  0  0  0
 33 39  1  0  0  0  0
 34 32  1  0  0  0  0
 35 31  1  0  0  0  0
 39 30  1  0  0  0  0
 39 38  1  1  0  0  0
 41 33  2  0  0  0  0
 42 41  1  0  0  0  0
 42 44  2  0  0  0  0
 43 42  1  0  0  0  0
 45 43  1  0  0  0  0
M  END
