
 OpenBabel07202119103D

 68 72  0  0  1  0  0  0  0  0999 V2000
    1.2116    0.6995    0.0000 O   0  0  0  0  0  0  0  0  0  0  0  0
   -0.0291    1.3990    0.0000 C   0  0  0  0  0  0  0  0  0  0  0  0
   -1.2116    0.6995    0.0000 O   0  0  0  0  0  0  0  0  0  0  0  0
    0.0000    2.7980    0.0000 C   0  0  1  0  0  0  0  0  0  0  0  0
    2.5032    0.4173    0.0000 H   0  0  0  0  0  0  0  0  0  0  0  0
    1.1332    3.4255    0.0000 O   0  0  0  0  0  0  0  0  0  0  0  0
   -0.5204    4.5585    0.0000 C   0  0  0  0  0  0  0  0  0  0  0  0
   -0.9832    3.3654    0.0000 C   0  0  0  0  0  0  0  0  0  0  0  0
    0.7125    6.0414    0.0000 C   0  0  1  0  0  0  0  0  0  0  0  0
   -2.4670    3.3217    0.0000 H   0  0  0  0  0  0  0  0  0  0  0  0
   -1.1839    5.8880    0.0000 H   0  0  0  0  0  0  0  0  0  0  0  0
   -2.4139    4.5859    0.0000 H   0  0  0  0  0  0  0  0  0  0  0  0
   -1.6106    1.7559    0.0000 H   0  0  0  0  0  0  0  0  0  0  0  0
    2.6117    4.4467    0.0000 H   0  0  0  0  0  0  0  0  0  0  0  0
    0.6543    4.5496    0.0000 C   0  0  2  0  0  0  0  0  0  0  0  0
    1.2755    1.8995    0.0000 H   0  0  0  0  0  0  0  0  0  0  0  0
    1.9336    6.6887    0.0000 O   0  0  0  0  0  0  0  0  0  0  0  0
    0.1916    7.9296    0.0000 C   0  0  0  0  0  0  0  0  0  0  0  0
   -0.3253    6.6659    0.0000 C   0  0  0  0  0  0  0  0  0  0  0  0
    1.5357    9.4875    0.0000 C   0  0  0  0  0  0  0  0  0  0  0  0
   -1.9089    6.6481    0.0000 H   0  0  0  0  0  0  0  0  0  0  0  0
   -0.4902    9.3607    0.0000 H   0  0  0  0  0  0  0  0  0  0  0  0
   -1.8277    7.9957    0.0000 H   0  0  0  0  0  0  0  0  0  0  0  0
   -1.0259    4.9612    0.0000 H   0  0  0  0  0  0  0  0  0  0  0  0
    3.5307    7.7493    0.0000 H   0  0  0  0  0  0  0  0  0  0  0  0
    1.4776    7.8960    0.0000 C   0  0  2  0  0  0  0  0  0  0  0  0
    2.0556    5.0582    0.0000 H   0  0  0  0  0  0  0  0  0  0  0  0
    1.3913   10.4303    0.0000 C   0  0  0  0  0  0  0  0  0  0  0  0
    1.5557   12.0889    0.0000 C   0  0  1  0  0  0  0  0  0  0  0  0
    3.7973   13.9370    0.0000 C   0  0  0  0  0  0  0  0  0  0  0  0
    2.7274   16.1532    0.0000 C   0  0  2  0  0  0  0  0  0  0  0  0
   -0.1459   16.1956    0.0000 N   0  0  0  0  0  0  0  0  0  0  0  0
   -1.1136   13.8282    0.0000 N   0  0  0  0  0  0  0  0  0  0  0  0
    2.9146   18.3103    0.0000 C   0  0  0  0  0  0  0  0  0  0  0  0
   -3.4935   13.1547    0.0000 H   0  0  0  0  0  0  0  0  0  0  0  0
   -2.8824   18.4026    0.0000 H   0  0  0  0  0  0  0  0  0  0  0  0
    9.1215   11.8991    0.0000 H   0  0  0  0  0  0  0  0  0  0  0  0
    8.6728   15.6881    0.0000 H   0  0  0  0  0  0  0  0  0  0  0  0
    4.8034    9.4808    0.0000 H   0  0  0  0  0  0  0  0  0  0  0  0
   -0.3548   11.5079    0.0000 H   0  0  0  0  0  0  0  0  0  0  0  0
    2.9367   19.8136    0.0000 C   0  0  0  0  0  0  0  0  0  0  0  0
    3.0392   20.9853    0.0000 C   0  0  1  0  0  0  0  0  0  0  0  0
    1.2340   19.8980    0.0000 H   0  0  0  0  0  0  0  0  0  0  0  0
    3.9680   18.3254    0.0000 H   0  0  0  0  0  0  0  0  0  0  0  0
    4.0247   21.4483    0.0000 O   0  0  0  0  0  0  0  0  0  0  0  0
    2.7010   22.4910    0.0000 C   0  0  0  0  0  0  0  0  0  0  0  0
    2.2462   21.5162    0.0000 C   0  0  0  0  0  0  0  0  0  0  0  0
    3.8179   23.6660    0.0000 C   0  0  1  0  0  0  0  0  0  0  0  0
    0.9993   21.5624    0.0000 H   0  0  0  0  0  0  0  0  0  0  0  0
    2.2188   23.6432    0.0000 H   0  0  0  0  0  0  0  0  0  0  0  0
    1.1143   22.6198    0.0000 H   0  0  0  0  0  0  0  0  0  0  0  0
    1.6301   20.2013    0.0000 H   0  0  0  0  0  0  0  0  0  0  0  0
    5.3218   22.2223    0.0000 H   0  0  0  0  0  0  0  0  0  0  0  0
    3.7138   22.4440    0.0000 C   0  0  2  0  0  0  0  0  0  0  0  0
    4.0588   20.1605    0.0000 H   0  0  0  0  0  0  0  0  0  0  0  0
    4.7015   24.2176    0.0000 C   0  0  0  0  0  0  0  0  0  0  0  0
    4.4897   25.1010    0.0000 N   0  0  0  0  0  0  0  0  0  0  0  0
    3.4721   25.1744    0.0000 N   0  0  0  0  0  0  0  0  0  0  0  0
    3.0632   24.3153    0.0000 N   0  0  0  0  0  0  0  0  0  0  0  0
    4.6133   25.9266    0.0000 N   0  0  0  0  0  0  0  0  0  0  0  0
    5.9551   24.3319    0.0000 H   0  0  0  0  0  0  0  0  0  0  0  0
    4.9761   23.0715    0.0000 H   0  0  0  0  0  0  0  0  0  0  0  0
    2.8660   23.3832    0.0000 H   0  0  0  0  0  0  0  0  0  0  0  0
    4.5743   26.8317    0.0000 N   0  0  0  0  0  0  0  0  0  0  0  0
    4.6340   27.6178    0.0000 C   0  0  0  0  0  0  0  0  0  0  0  0
    2.9573   29.1308    0.0000 O   0  0  0  0  0  0  0  0  0  0  0  0
    5.9448   28.9068    0.0000 O   0  0  0  0  0  0  0  0  0  0  0  0
    2.8486   30.6409    0.0000 H   0  0  0  0  0  0  0  0  0  0  0  0
  1  5  1  0  0  0  0
  2  1  1  0  0  0  0
  3  2  2  0  0  0  0
  4  2  1  0  0  0  0
  4  8  1  0  0  0  0
  4 16  1  1  0  0  0
  6  4  1  0  0  0  0
  7 15  1  0  0  0  0
  7 12  1  0  0  0  0
  8  7  1  0  0  0  0
  8 13  1  0  0  0  0
  9 15  1  0  0  0  0
  9 19  1  0  0  0  0
  9 27  1  1  0  0  0
 10  8  1  0  0  0  0
 11  7  1  0  0  0  0
 15  6  1  0  0  0  0
 15 14  1  1  0  0  0
 17  9  1  0  0  0  0
 18 26  1  0  0  0  0
 18 23  1  0  0  0  0
 19 18  1  0  0  0  0
 19 24  1  0  0  0  0
 20 26  1  0  0  0  0
 21 19  1  0  0  0  0
 22 18  1  0  0  0  0
 26 17  1  0  0  0  0
 26 25  1  1  0  0  0
 28 20  3  0  0  0  0
 29 28  1  0  0  0  0
 29 33  1  0  0  0  0
 29 40  1  1  0  0  0
 30 29  1  0  0  0  0
 30 37  1  0  0  0  0
 30 39  1  0  0  0  0
 31 30  1  0  0  0  0
 31 38  1  1  0  0  0
 32 31  1  0  0  0  0
 33 32  1  0  0  0  0
 34 31  1  0  0  0  0
 34 44  1  0  0  0  0
 35 33  1  0  0  0  0
 36 32  1  0  0  0  0
 41 34  2  0  0  0  0
 41 43  1  0  0  0  0
 42 41  1  0  0  0  0
 42 47  1  0  0  0  0
 42 55  1  1  0  0  0
 45 42  1  0  0  0  0
 46 54  1  0  0  0  0
 46 51  1  0  0  0  0
 47 46  1  0  0  0  0
 47 52  1  0  0  0  0
 48 54  1  0  0  0  0
 48 59  1  0  0  0  0
 48 63  1  1  0  0  0
 49 47  1  0  0  0  0
 50 46  1  0  0  0  0
 54 45  1  0  0  0  0
 54 53  1  1  0  0  0
 56 48  1  0  0  0  0
 56 61  1  0  0  0  0
 56 62  1  0  0  0  0
 57 56  1  0  0  0  0
 58 57  1  0  0  0  0
 59 58  2  0  0  0  0
 60 57  1  0  0  0  0
 64 60  2  0  0  0  0
 65 64  1  0  0  0  0
 65 67  2  0  0  0  0
 66 65  1  0  0  0  0
 68 66  1  0  0  0  0
M  END
