
 OpenBabel06022113423D

 43 45  0  0  1  0  0  0  0  0999 V2000
    0.1250   -0.8120    0.3890 O   0  0  0  0  0  0  0  0  0  0  0  0
   -0.7240    0.1870    0.0630 C   0  0  0  0  0  0  0  0  0  0  0  0
   -1.7720   -0.0820   -0.5030 O   0  0  0  0  0  0  0  0  0  0  0  0
   -0.3830    1.6150    0.3990 C   0  0  1  0  0  0  0  0  0  0  0  0
    0.9630   -0.6380    0.8400 H   0  0  0  0  0  0  0  0  0  0  0  0
    0.8700    2.0840   -0.2830 C   0  0  0  0  0  0  0  0  0  0  0  0
    0.6950    3.5700   -0.0620 C   0  0  2  0  0  0  0  0  0  0  0  0
   -0.7310    3.7860   -0.3540 N   0  0  0  0  0  0  0  0  0  0  0  0
   -1.3990    2.5710   -0.0510 N   0  0  0  0  0  0  0  0  0  0  0  0
    1.6570    4.4980   -0.9220 C   0  0  1  0  0  0  0  0  0  0  0  0
   -2.0890    2.7470    0.7160 H   0  0  0  0  0  0  0  0  0  0  0  0
   -0.8480    3.9210   -1.3860 H   0  0  0  0  0  0  0  0  0  0  0  0
    1.8030    1.6450    0.1330 H   0  0  0  0  0  0  0  0  0  0  0  0
    0.8520    3.7730    1.0260 H   0  0  0  0  0  0  0  0  0  0  0  0
    0.7990    1.8740   -1.3750 H   0  0  0  0  0  0  0  0  0  0  0  0
   -0.2550    1.7100    1.5050 H   0  0  0  0  0  0  0  0  0  0  0  0
    1.4630    5.7390   -0.7200 C   0  0  0  0  0  0  0  0  0  0  0  0
    1.9820    6.1610    0.3580 C   0  0  0  0  0  0  0  0  0  0  0  0
    3.2050    5.8310    0.5010 C   0  0  1  0  0  0  0  0  0  0  0  0
    3.3920    4.5920    0.2790 C   0  0  0  0  0  0  0  0  0  0  0  0
    2.8860    4.1980   -0.8080 C   0  0  0  0  0  0  0  0  0  0  0  0
    4.2070    6.7690   -0.2850 C   0  0  2  0  0  0  0  0  0  0  0  0
    1.7950    7.2470    0.5190 H   0  0  0  0  0  0  0  0  0  0  0  0
    0.3910    6.0300   -0.8110 H   0  0  0  0  0  0  0  0  0  0  0  0
    3.1030    3.1290   -1.0210 H   0  0  0  0  0  0  0  0  0  0  0  0
    4.4480    4.2670    0.3930 H   0  0  0  0  0  0  0  0  0  0  0  0
    5.7010    6.4950    0.0230 C   0  0  0  0  0  0  0  0  0  0  0  0
    6.2060    7.8110    0.2660 N   0  0  0  0  0  0  0  0  0  0  0  0
    5.1680    8.6900    0.3250 N   0  0  0  0  0  0  0  0  0  0  0  0
    4.0720    8.1630    0.0830 N   0  0  0  0  0  0  0  0  0  0  0  0
    6.8519    7.7744    0.0000 N   0  0  0  0  0  0  0  0  0  0  0  0
    5.8250    5.9430    0.9780 H   0  0  0  0  0  0  0  0  0  0  0  0
    6.2270    5.9790   -0.8070 H   0  0  0  0  0  0  0  0  0  0  0  0
    4.0360    6.7150   -1.3850 H   0  0  0  0  0  0  0  0  0  0  0  0
    6.8130    8.6795    0.0000 N   0  0  0  0  0  0  0  0  0  0  0  0
    6.8337    9.6992    0.0000 C   0  0  0  0  0  0  0  0  0  0  0  0
    6.8801   11.2009    0.0000 C   0  0  0  0  0  0  0  0  0  0  0  0
    6.9972   12.1407    0.0000 C   0  0  0  0  0  0  0  0  0  0  0  0
    5.1531   11.2870    0.0000 H   0  0  0  0  0  0  0  0  0  0  0  0
    7.8871    9.7144    0.0000 H   0  0  0  0  0  0  0  0  0  0  0  0
    5.3206   13.6537    0.0000 O   0  0  0  0  0  0  0  0  0  0  0  0
    8.3080   13.4298    0.0000 O   0  0  0  0  0  0  0  0  0  0  0  0
    5.2119   15.1638    0.0000 H   0  0  0  0  0  0  0  0  0  0  0  0
  1  5  1  0  0  0  0
  2  1  1  0  0  0  0
  3  2  2  0  0  0  0
  4  2  1  0  0  0  0
  4  9  1  0  0  0  0
  4 16  1  1  0  0  0
  6  4  1  0  0  0  0
  6 13  1  0  0  0  0
  6 15  1  0  0  0  0
  7  6  1  0  0  0  0
  7 14  1  1  0  0  0
  8  7  1  0  0  0  0
  9  8  1  0  0  0  0
 10  7  1  0  0  0  0
 10 17  5  1  0  0  0
 10 21  5  0  0  0  0
 11  9  1  0  0  0  0
 12  8  1  0  0  0  0
 17 18  5  0  0  0  0
 17 24  1  0  0  0  0
 18 23  1  0  0  0  0
 19 18  5  6  0  0  0
 19 22  1  0  0  0  0
 20 19  5  0  0  0  0
 20 26  1  0  0  0  0
 21 20  5  0  0  0  0
 21 25  1  0  0  0  0
 22 30  1  0  0  0  0
 22 34  1  6  0  0  0
 27 22  1  0  0  0  0
 27 32  1  0  0  0  0
 27 33  1  0  0  0  0
 28 27  1  0  0  0  0
 29 28  1  0  0  0  0
 30 29  2  0  0  0  0
 31 28  1  0  0  0  0
 35 31  2  0  0  0  0
 36 35  1  0  0  0  0
 36 40  1  0  0  0  0
 37 36  2  3  0  0  0
 37 39  1  0  0  0  0
 38 37  1  0  0  0  0
 38 42  2  0  0  0  0
 41 38  1  0  0  0  0
 43 41  1  0  0  0  0
M  END
