
 OpenBabel07202119133D

 20 20  0  0  1  0  0  0  0  0999 V2000
    1.2116    0.6995    0.0000 O   0  0  0  0  0  0  0  0  0  0  0  0
    0.0000    1.3990    0.0000 C   0  0  0  0  0  0  0  0  0  0  0  0
   -1.2116    0.6995    0.0000 O   0  0  0  0  0  0  0  0  0  0  0  0
    0.0000    2.7980    0.0000 C   0  0  0  0  0  0  0  0  0  0  0  0
    2.5032    0.4173    0.0000 H   0  0  0  0  0  0  0  0  0  0  0  0
    0.0479    4.3262    0.0000 C   0  0  0  0  0  0  0  0  0  0  0  0
    0.1245    5.4731    0.0000 C   0  0  1  0  0  0  0  0  0  0  0  0
   -1.6806    4.3858    0.0000 H   0  0  0  0  0  0  0  0  0  0  0  0
    1.0534    2.8132    0.0000 H   0  0  0  0  0  0  0  0  0  0  0  0
    0.9432    6.0051    0.0000 C   0  0  0  0  0  0  0  0  0  0  0  0
    0.7295    6.8294    0.0000 N   0  0  0  0  0  0  0  0  0  0  0  0
   -0.2253    6.8807    0.0000 N   0  0  0  0  0  0  0  0  0  0  0  0
   -0.5938    6.0687    0.0000 N   0  0  0  0  0  0  0  0  0  0  0  0
    0.8297    7.5898    0.0000 C   0  0  0  0  0  0  0  0  0  0  0  0
    2.1160    6.1337    0.0000 H   0  0  0  0  0  0  0  0  0  0  0  0
    1.2200    4.9358    0.0000 H   0  0  0  0  0  0  0  0  0  0  0  0
   -0.7627    5.1918    0.0000 H   0  0  0  0  0  0  0  0  0  0  0  0
   -0.8470    9.1027    0.0000 O   0  0  0  0  0  0  0  0  0  0  0  0
    2.1404    8.8788    0.0000 O   0  0  0  0  0  0  0  0  0  0  0  0
   -0.9557   10.6129    0.0000 H   0  0  0  0  0  0  0  0  0  0  0  0
  1  5  1  0  0  0  0
  2  1  1  0  0  0  0
  3  2  2  0  0  0  0
  4  2  1  0  0  0  0
  4  9  1  0  0  0  0
  6  4  2  3  0  0  0
  6  8  1  0  0  0  0
  7  6  1  0  0  0  0
  7 13  1  0  0  0  0
  7 17  1  1  0  0  0
 10  7  1  0  0  0  0
 10 15  1  0  0  0  0
 10 16  1  0  0  0  0
 11 10  1  0  0  0  0
 12 11  1  0  0  0  0
 13 12  2  0  0  0  0
 14 11  1  0  0  0  0
 14 19  2  0  0  0  0
 18 14  1  0  0  0  0
 20 18  1  0  0  0  0
M  END
