
 OpenBabel06022114113D

 30 31  0  0  1  0  0  0  0  0999 V2000
    0.9840   -1.0170    0.3430 O   0  0  0  0  0  0  0  0  0  0  0  0
   -0.1540   -0.3840   -0.0150 C   0  0  0  0  0  0  0  0  0  0  0  0
   -1.1590   -1.0490   -0.2070 O   0  0  0  0  0  0  0  0  0  0  0  0
   -0.2470    1.1100   -0.1900 C   0  0  2  0  0  0  0  0  0  0  0  0
    1.8210   -0.5660    0.5000 H   0  0  0  0  0  0  0  0  0  0  0  0
    1.0070    1.9690    0.0820 C   0  0  0  0  0  0  0  0  0  0  0  0
    0.3690    3.1360    0.6060 N   0  0  0  0  0  0  0  0  0  0  0  0
   -0.8680    2.8180    1.0760 N   0  0  0  0  0  0  0  0  0  0  0  0
   -1.2260    1.6910    0.7040 N   0  0  0  0  0  0  0  0  0  0  0  0
    0.6790    4.4330    0.2610 C   0  0  0  0  0  0  0  0  0  0  0  0
    1.6480    2.1450   -0.8110 H   0  0  0  0  0  0  0  0  0  0  0  0
    1.6070    1.5580    0.9210 H   0  0  0  0  0  0  0  0  0  0  0  0
   -0.5860    1.3350   -1.2270 H   0  0  0  0  0  0  0  0  0  0  0  0
    0.8870    5.5810   -0.0040 C   0  0  0  0  0  0  0  0  0  0  0  0
    1.0360    6.9990   -0.2660 C   0  0  2  0  0  0  0  0  0  0  0  0
    2.4430    7.5720   -0.1490 C   0  0  0  0  0  0  0  0  0  0  0  0
    2.1260    8.8550    0.4220 N   0  0  0  0  0  0  0  0  0  0  0  0
    0.8170    8.8810    0.8300 N   0  0  0  0  0  0  0  0  0  0  0  0
    0.1890    7.8610    0.5070 N   0  0  0  0  0  0  0  0  0  0  0  0
    2.7560   10.0030    0.0120 N   0  0  0  0  0  0  0  0  0  0  0  0
    2.9950    7.6200   -1.1140 H   0  0  0  0  0  0  0  0  0  0  0  0
    3.0270    7.0120    0.6140 H   0  0  0  0  0  0  0  0  0  0  0  0
    0.8190    7.1410   -1.3480 H   0  0  0  0  0  0  0  0  0  0  0  0
    2.2450   11.1160    0.2310 N   0  0  0  0  0  0  0  0  0  0  0  0
    2.5640   11.6940    0.0000 C   0  0  0  0  0  0  0  0  0  0  0  0
    2.5388   13.0445    0.0000 C   0  0  0  0  0  0  0  0  0  0  0  0
    2.6229   14.0619    0.0000 C   0  0  0  0  0  0  0  0  0  0  0  0
    0.9463   15.5748    0.0000 O   0  0  0  0  0  0  0  0  0  0  0  0
    3.9337   15.3509    0.0000 O   0  0  0  0  0  0  0  0  0  0  0  0
    0.8376   17.0850    0.0000 H   0  0  0  0  0  0  0  0  0  0  0  0
  1  5  1  0  0  0  0
  2  1  1  0  0  0  0
  3  2  2  0  0  0  0
  4  2  1  0  0  0  0
  4  9  1  0  0  0  0
  4 13  1  6  0  0  0
  6  4  1  0  0  0  0
  6 11  1  0  0  0  0
  6 12  1  0  0  0  0
  7  6  1  0  0  0  0
  8  7  1  0  0  0  0
  9  8  2  0  0  0  0
 10  7  1  0  0  0  0
 14 10  3  0  0  0  0
 15 14  1  0  0  0  0
 15 19  1  0  0  0  0
 15 23  1  6  0  0  0
 16 15  1  0  0  0  0
 16 21  1  0  0  0  0
 16 22  1  0  0  0  0
 17 16  1  0  0  0  0
 18 17  1  0  0  0  0
 19 18  2  0  0  0  0
 20 17  1  0  0  0  0
 24 20  2  0  0  0  0
 25 24  1  0  0  0  0
 26 25  3  0  0  0  0
 27 26  1  0  0  0  0
 27 29  2  0  0  0  0
 28 27  1  0  0  0  0
 30 28  1  0  0  0  0
M  END
