
 OpenBabel07202119143D

 36 37  0  0  1  0  0  0  0  0999 V2000
    1.2116    0.6995    0.0000 O   0  0  0  0  0  0  0  0  0  0  0  0
    0.0000    1.3990    0.0000 C   0  0  0  0  0  0  0  0  0  0  0  0
   -1.2116    0.6995    0.0000 O   0  0  0  0  0  0  0  0  0  0  0  0
    0.0389    2.5644    0.0000 N   0  0  0  0  0  0  0  0  0  0  0  0
    2.5032    0.4173    0.0000 H   0  0  0  0  0  0  0  0  0  0  0  0
    0.0001    3.6291    0.0000 N   0  0  0  0  0  0  0  0  0  0  0  0
    0.0207    4.4892   -0.0000 C   0  0  1  0  0  0  0  0  0  0  0  0
   -0.3679    4.6491    0.0000 C   0  0  1  0  0  0  0  0  0  0  0  0
   -2.3716    6.0909    0.0000 C   0  0  1  0  0  0  0  0  0  0  0  0
   -0.0699    5.8453    0.0000 C   0  0  1  0  0  0  0  0  0  0  0  0
    0.6899    5.6864    0.0000 C   0  0  0  0  0  0  0  0  0  0  0  0
    0.7145    4.7837    0.0000 C   0  0  0  0  0  0  0  0  0  0  0  0
    0.0139    6.9065    0.0000 C   0  0  1  0  0  0  0  0  0  0  0  0
   -1.2046    6.1396   -0.0000 C   0  0  0  0  0  0  0  0  0  0  0  0
   -0.2333    4.5755    0.0000 F   0  0  0  0  0  0  0  0  0  0  0  0
    1.5286    4.4460    0.0000 H   0  0  0  0  0  0  0  0  0  0  0  0
    1.4542    6.1621    0.0000 H   0  0  0  0  0  0  0  0  0  0  0  0
    1.4217    8.1153    0.0000 C   0  0  0  0  0  0  0  0  0  0  0  0
    0.7102    9.5168    0.0000 C   0  0  2  0  0  0  0  0  0  0  0  0
   -1.1251    9.5072    0.0000 N   0  0  0  0  0  0  0  0  0  0  0  0
   -1.7128    7.9831    0.0000 N   0  0  0  0  0  0  0  0  0  0  0  0
    0.8023   10.8966    0.0000 C   0  0  0  0  0  0  0  0  0  0  0  0
   -3.2239    7.5226    0.0000 H   0  0  0  0  0  0  0  0  0  0  0  0
   -2.9006   10.8815    0.0000 H   0  0  0  0  0  0  0  0  0  0  0  0
    4.8475    6.8819    0.0000 H   0  0  0  0  0  0  0  0  0  0  0  0
    4.5127    9.2956    0.0000 H   0  0  0  0  0  0  0  0  0  0  0  0
    2.1210    5.2826    0.0000 H   0  0  0  0  0  0  0  0  0  0  0  0
   -1.1987    6.5111    0.0000 H   0  0  0  0  0  0  0  0  0  0  0  0
    0.7771   12.2471    0.0000 C   0  0  0  0  0  0  0  0  0  0  0  0
    0.8612   13.2645    0.0000 C   0  0  0  0  0  0  0  0  0  0  0  0
   -2.7761    6.9794   -0.0000 H   0  0  0  0  0  0  0  0  0  0  0  0
   -1.1202    6.1441   -0.0000 H   0  0  0  0  0  0  0  0  0  0  0  0
   -0.8274    5.9380   -0.0000 H   0  0  0  0  0  0  0  0  0  0  0  0
   -0.8155   14.7774    0.0000 O   0  0  0  0  0  0  0  0  0  0  0  0
    2.1719   14.5535    0.0000 O   0  0  0  0  0  0  0  0  0  0  0  0
   -0.9242   16.2875    0.0000 H   0  0  0  0  0  0  0  0  0  0  0  0
  1  5  1  0  0  0  0
  2  1  1  0  0  0  0
  3  2  2  0  0  0  0
  4  2  1  0  0  0  0
  6  4  2  0  0  0  0
  7  6  1  1  0  0  0
  7 12  5  0  0  0  0
  8  7  5  0  0  0  0
  8  9  5  0  0  0  0
  8 15  1  6  0  0  0
  9 14  1  6  0  0  0
 10  9  5  0  0  0  0
 10 11  5  6  0  0  0
 10 13  1  0  0  0  0
 11 17  1  0  0  0  0
 12 11  5  0  0  0  0
 12 16  1  0  0  0  0
 13 21  1  0  0  0  0
 13 28  1  1  0  0  0
 14 31  1  0  0  0  0
 14 32  1  0  0  0  0
 14 33  1  0  0  0  0
 18 13  1  0  0  0  0
 18 25  1  0  0  0  0
 18 27  1  0  0  0  0
 19 18  1  0  0  0  0
 19 26  1  1  0  0  0
 20 19  1  0  0  0  0
 21 20  1  0  0  0  0
 22 19  1  0  0  0  0
 23 21  1  0  0  0  0
 24 20  1  0  0  0  0
 29 22  3  0  0  0  0
 30 29  1  0  0  0  0
 30 35  2  0  0  0  0
 34 30  1  0  0  0  0
 36 34  1  0  0  0  0
M  END
