
 OpenBabel06022114423D

 20 20  0  0  1  0  0  0  0  0999 V2000
    0.7160   -0.4060    0.5940 O   0  0  0  0  0  0  0  0  0  0  0  0
   -0.2090    0.3660   -0.0270 C   0  0  0  0  0  0  0  0  0  0  0  0
   -1.2480   -0.1690   -0.3850 O   0  0  0  0  0  0  0  0  0  0  0  0
   -0.0100    1.8670   -0.3150 C   0  0  1  0  0  0  0  0  0  0  0  0
    1.5690   -0.0870    0.9140 H   0  0  0  0  0  0  0  0  0  0  0  0
   -0.9440    2.5460    0.2200 C   0  0  0  0  0  0  0  0  0  0  0  0
   -0.8030    3.7880    0.0640 C   0  0  0  0  0  0  0  0  0  0  0  0
    0.3310    4.1910   -0.0000 C   0  0  2  0  0  0  0  0  0  0  0  0
    1.3335    3.4806    0.0000 C   0  0  1  0  0  0  0  0  0  0  0  0
    1.1520    2.3020    0.0000 C   0  0  2  0  0  0  0  0  0  0  0  0
    0.4379    4.7034    0.0000 C   0  0  0  0  0  0  0  0  0  0  0  0
   -1.5860    4.3500    0.6180 H   0  0  0  0  0  0  0  0  0  0  0  0
   -1.9400    2.2440   -0.1850 H   0  0  0  0  0  0  0  0  0  0  0  0
    2.1280    1.6810   -0.8130 O   0  0  0  0  0  0  0  0  0  0  0  0
    1.0776    3.8072    0.0000 O   0  0  0  0  0  0  0  0  0  0  0  0
    2.8720    1.4530   -0.1950 H   0  0  0  0  0  0  0  0  0  0  0  0
    1.0135    3.8854    0.0000 H   0  0  0  0  0  0  0  0  0  0  0  0
   -1.2387    6.2163    0.0000 O   0  0  0  0  0  0  0  0  0  0  0  0
    1.7487    5.9924    0.0000 O   0  0  0  0  0  0  0  0  0  0  0  0
   -1.3474    7.7265    0.0000 H   0  0  0  0  0  0  0  0  0  0  0  0
  1  5  1  0  0  0  0
  2  1  1  0  0  0  0
  3  2  2  0  0  0  0
  4  2  1  1  0  0  0
  4 10  5  0  0  0  0
  6  4  5  0  0  0  0
  6  7  5  0  0  0  0
  6 13  1  0  0  0  0
  7 12  1  0  0  0  0
  8  7  5  0  0  0  0
  8 11  1  1  0  0  0
  9  8  5  0  0  0  0
  9 15  1  6  0  0  0
 10  9  5  0  0  0  0
 10 14  1  6  0  0  0
 11 19  2  0  0  0  0
 14 16  1  0  0  0  0
 15 17  1  0  0  0  0
 18 11  1  0  0  0  0
 20 18  1  0  0  0  0
M  END
