
 OpenBabel07202118273D

 22 22  0  0  1  0  0  0  0  0999 V2000
    1.2116    0.6995    0.0000 O   0  0  0  0  0  0  0  0  0  0  0  0
    0.0000    1.3990    0.0000 C   0  0  0  0  0  0  0  0  0  0  0  0
   -1.2116    0.6995    0.0000 O   0  0  0  0  0  0  0  0  0  0  0  0
    0.0389    2.5644    0.0000 N   0  0  0  0  0  0  0  0  0  0  0  0
    2.5032    0.4173    0.0000 H   0  0  0  0  0  0  0  0  0  0  0  0
    0.0000    3.4695    0.0000 N   0  0  0  0  0  0  0  0  0  0  0  0
    0.0207    4.4892    0.0000 C   0  0  0  0  0  0  0  0  0  0  0  0
   -0.0037    5.8680    0.0000 C   0  0  0  0  0  0  0  0  0  0  0  0
    0.0407    7.0907    0.0000 C   0  0  1  0  0  0  0  0  0  0  0  0
    0.8944    7.6833    0.0000 C   0  0  0  0  0  0  0  0  0  0  0  0
    0.6404    8.5533    0.0000 N   0  0  0  0  0  0  0  0  0  0  0  0
   -0.3771    8.5770    0.0000 N   0  0  0  0  0  0  0  0  0  0  0  0
   -0.7429    7.7011    0.0000 N   0  0  0  0  0  0  0  0  0  0  0  0
    0.6733    9.6128    0.0000 C   0  0  0  0  0  0  0  0  0  0  0  0
    2.1380    7.8580    0.0000 H   0  0  0  0  0  0  0  0  0  0  0  0
    1.2236    6.5546    0.0000 H   0  0  0  0  0  0  0  0  0  0  0  0
   -0.8942    6.7627    0.0000 H   0  0  0  0  0  0  0  0  0  0  0  0
    0.6482   10.9633    0.0000 C   0  0  0  0  0  0  0  0  0  0  0  0
    0.7322   11.9807    0.0000 C   0  0  0  0  0  0  0  0  0  0  0  0
   -0.9444   13.4936    0.0000 O   0  0  0  0  0  0  0  0  0  0  0  0
    2.0430   13.2697    0.0000 O   0  0  0  0  0  0  0  0  0  0  0  0
   -1.0531   15.0038    0.0000 H   0  0  0  0  0  0  0  0  0  0  0  0
  1  5  1  0  0  0  0
  2  1  1  0  0  0  0
  3  2  2  0  0  0  0
  4  2  1  0  0  0  0
  6  4  2  0  0  0  0
  7  6  1  0  0  0  0
  8  7  3  0  0  0  0
  9  8  1  0  0  0  0
  9 13  1  0  0  0  0
  9 17  1  1  0  0  0
 10  9  1  0  0  0  0
 10 15  1  0  0  0  0
 10 16  1  0  0  0  0
 11 10  1  0  0  0  0
 12 11  1  0  0  0  0
 13 12  2  0  0  0  0
 14 11  1  0  0  0  0
 18 14  3  0  0  0  0
 19 18  1  0  0  0  0
 19 21  2  0  0  0  0
 20 19  1  0  0  0  0
 22 20  1  0  0  0  0
M  END
