
 OpenBabel07202118273D

 40 42  0  0  1  0  0  0  0  0999 V2000
    1.2116    0.6995    0.0000 O   0  0  0  0  0  0  0  0  0  0  0  0
   -0.0004    1.4306    0.0000 C   0  0  0  0  0  0  0  0  0  0  0  0
   -1.2116    0.6995    0.0000 O   0  0  0  0  0  0  0  0  0  0  0  0
    0.0000    2.7980    0.0000 C   0  0  1  0  0  0  0  0  0  0  0  0
    2.5032    0.4173    0.0000 H   0  0  0  0  0  0  0  0  0  0  0  0
    0.9296    3.4943    0.0000 C   0  0  0  0  0  0  0  0  0  0  0  0
    0.5863    4.4556    0.0000 N   0  0  0  0  0  0  0  0  0  0  0  0
   -0.5266    4.4412    0.0000 N   0  0  0  0  0  0  0  0  0  0  0  0
   -0.8998    3.4482    0.0000 N   0  0  0  0  0  0  0  0  0  0  0  0
    0.6050    5.6405    0.0000 C   0  0  1  0  0  0  0  0  0  0  0  0
    2.3116    3.7395    0.0000 H   0  0  0  0  0  0  0  0  0  0  0  0
    1.3428    2.2469    0.0000 H   0  0  0  0  0  0  0  0  0  0  0  0
   -1.0309    2.3940    0.0000 H   0  0  0  0  0  0  0  0  0  0  0  0
    1.5620    6.1766    0.0000 O   0  0  0  0  0  0  0  0  0  0  0  0
    0.1569    7.1292    0.0000 C   0  0  0  0  0  0  0  0  0  0  0  0
   -0.2300    6.1169    0.0000 C   0  0  0  0  0  0  0  0  0  0  0  0
    1.1947    8.3901    0.0000 C   0  0  1  0  0  0  0  0  0  0  0  0
   -1.4863    6.0735    0.0000 H   0  0  0  0  0  0  0  0  0  0  0  0
   -0.4106    8.2522    0.0000 H   0  0  0  0  0  0  0  0  0  0  0  0
   -1.4468    7.1444    0.0000 H   0  0  0  0  0  0  0  0  0  0  0  0
   -0.7545    4.7512    0.0000 H   0  0  0  0  0  0  0  0  0  0  0  0
    2.8098    7.0477    0.0000 H   0  0  0  0  0  0  0  0  0  0  0  0
    1.0669    6.7119    0.0000 C   0  0  2  0  0  0  0  0  0  0  0  0
    1.6889    4.8850    0.0000 H   0  0  0  0  0  0  0  0  0  0  0  0
    3.4152   10.3074    0.0000 C   0  0  0  0  0  0  0  0  0  0  0  0
    2.2841   12.5201    0.0000 C   0  0  2  0  0  0  0  0  0  0  0  0
   -0.6176   12.4969    0.0000 N   0  0  0  0  0  0  0  0  0  0  0  0
   -1.5401   10.0846    0.0000 N   0  0  0  0  0  0  0  0  0  0  0  0
    2.4624   14.4685    0.0000 N   0  0  0  0  0  0  0  0  0  0  0  0
   -3.9272    9.3499    0.0000 H   0  0  0  0  0  0  0  0  0  0  0  0
   -3.4309   14.6619    0.0000 H   0  0  0  0  0  0  0  0  0  0  0  0
    8.8371    8.3726    0.0000 H   0  0  0  0  0  0  0  0  0  0  0  0
    8.2970   12.1874    0.0000 H   0  0  0  0  0  0  0  0  0  0  0  0
    4.5334    5.8318    0.0000 H   0  0  0  0  0  0  0  0  0  0  0  0
   -0.7207    7.7596    0.0000 H   0  0  0  0  0  0  0  0  0  0  0  0
    2.4235   15.3736    0.0000 N   0  0  0  0  0  0  0  0  0  0  0  0
    2.4831   16.1598    0.0000 C   0  0  0  0  0  0  0  0  0  0  0  0
    0.8065   17.6727    0.0000 O   0  0  0  0  0  0  0  0  0  0  0  0
    3.7939   17.4488    0.0000 O   0  0  0  0  0  0  0  0  0  0  0  0
    0.6978   19.1829    0.0000 H   0  0  0  0  0  0  0  0  0  0  0  0
  1  5  1  0  0  0  0
  2  1  1  0  0  0  0
  3  2  2  0  0  0  0
  4  2  1  0  0  0  0
  4  9  1  0  0  0  0
  4 13  1  1  0  0  0
  6  4  1  0  0  0  0
  6 11  1  0  0  0  0
  6 12  1  0  0  0  0
  7  6  1  0  0  0  0
  8  7  1  0  0  0  0
  9  8  2  0  0  0  0
 10  7  1  0  0  0  0
 10 16  1  0  0  0  0
 10 24  1  1  0  0  0
 14 10  1  0  0  0  0
 15 23  1  0  0  0  0
 15 20  1  0  0  0  0
 16 15  1  0  0  0  0
 16 21  1  0  0  0  0
 17 23  1  0  0  0  0
 17 28  1  0  0  0  0
 17 35  1  1  0  0  0
 18 16  1  0  0  0  0
 19 15  1  0  0  0  0
 23 14  1  0  0  0  0
 23 22  1  1  0  0  0
 25 17  1  0  0  0  0
 25 32  1  0  0  0  0
 25 34  1  0  0  0  0
 26 25  1  0  0  0  0
 26 33  1  1  0  0  0
 27 26  1  0  0  0  0
 28 27  1  0  0  0  0
 29 26  1  0  0  0  0
 30 28  1  0  0  0  0
 31 27  1  0  0  0  0
 36 29  2  0  0  0  0
 37 36  1  0  0  0  0
 37 39  2  0  0  0  0
 38 37  1  0  0  0  0
 40 38  1  0  0  0  0
M  END
