
 OpenBabel07202118273D

 40 42  0  0  1  0  0  0  0  0999 V2000
    1.2116    0.6995    0.0000 O   0  0  0  0  0  0  0  0  0  0  0  0
    0.0000    1.3990    0.0000 C   0  0  0  0  0  0  0  0  0  0  0  0
   -1.2116    0.6995    0.0000 O   0  0  0  0  0  0  0  0  0  0  0  0
    0.0000    2.7980    0.0000 C   0  0  0  0  0  0  0  0  0  0  0  0
    2.5032    0.4173    0.0000 H   0  0  0  0  0  0  0  0  0  0  0  0
    0.0479    4.3262    0.0000 C   0  0  0  0  0  0  0  0  0  0  0  0
    0.1245    5.4731    0.0000 C   0  0  1  0  0  0  0  0  0  0  0  0
   -1.6806    4.3858    0.0000 H   0  0  0  0  0  0  0  0  0  0  0  0
    1.0534    2.8132    0.0000 H   0  0  0  0  0  0  0  0  0  0  0  0
    0.9432    6.0051    0.0000 C   0  0  0  0  0  0  0  0  0  0  0  0
    0.7360    6.9851    0.0000 N   0  0  0  0  0  0  0  0  0  0  0  0
   -0.2253    6.8807    0.0000 N   0  0  0  0  0  0  0  0  0  0  0  0
   -0.5938    6.0687    0.0000 N   0  0  0  0  0  0  0  0  0  0  0  0
    0.7907    7.8234    0.0000 C   0  0  1  0  0  0  0  0  0  0  0  0
    2.1160    6.1337    0.0000 H   0  0  0  0  0  0  0  0  0  0  0  0
    1.2200    4.9358    0.0000 H   0  0  0  0  0  0  0  0  0  0  0  0
   -0.7627    5.1918    0.0000 H   0  0  0  0  0  0  0  0  0  0  0  0
    0.1123    8.1772    0.0000 C   0  0  0  0  0  0  0  0  0  0  0  0
    0.1342    8.9965    0.0000 C   0  0  0  0  0  0  0  0  0  0  0  0
    0.8366    9.4027    0.0000 C   0  0  1  0  0  0  0  0  0  0  0  0
    1.4917    8.9645    0.0000 C   0  0  0  0  0  0  0  0  0  0  0  0
    1.4795    8.0828    0.0000 C   0  0  0  0  0  0  0  0  0  0  0  0
    0.9202    9.9484    0.0000 N   0  0  0  0  0  0  0  0  0  0  0  0
   -0.4453    9.4858    0.0000 H   0  0  0  0  0  0  0  0  0  0  0  0
   -0.4906    7.8106    0.0000 H   0  0  0  0  0  0  0  0  0  0  0  0
    2.2601    7.7205    0.0000 H   0  0  0  0  0  0  0  0  0  0  0  0
    2.2565    9.3978    0.0000 H   0  0  0  0  0  0  0  0  0  0  0  0
    0.8815   10.8765    0.0000 N   0  0  0  0  0  0  0  0  0  0  0  0
    0.9020   11.8732    0.0000 C   0  0  1  0  0  0  0  0  0  0  0  0
    1.5899   12.3670    0.0000 C   0  0  0  0  0  0  0  0  0  0  0  0
    1.3718   13.0725    0.0000 N   0  0  0  0  0  0  0  0  0  0  0  0
    0.5425   13.0788    0.0000 N   0  0  0  0  0  0  0  0  0  0  0  0
    0.2558   12.3605    0.0000 N   0  0  0  0  0  0  0  0  0  0  0  0
    1.4240   13.7026    0.0000 C   0  0  0  0  0  0  0  0  0  0  0  0
    2.6009   12.5253    0.0000 H   0  0  0  0  0  0  0  0  0  0  0  0
    1.8726   11.4516    0.0000 H   0  0  0  0  0  0  0  0  0  0  0  0
    0.1446   11.5940    0.0000 H   0  0  0  0  0  0  0  0  0  0  0  0
   -0.2526   15.2155    0.0000 O   0  0  0  0  0  0  0  0  0  0  0  0
    2.7348   14.9916    0.0000 O   0  0  0  0  0  0  0  0  0  0  0  0
   -0.3613   16.7256    0.0000 H   0  0  0  0  0  0  0  0  0  0  0  0
  1  5  1  0  0  0  0
  2  1  1  0  0  0  0
  3  2  2  0  0  0  0
  4  2  1  0  0  0  0
  4  9  1  0  0  0  0
  6  4  2  3  0  0  0
  6  8  1  0  0  0  0
  7  6  1  0  0  0  0
  7 13  1  0  0  0  0
  7 17  1  1  0  0  0
 10  7  1  0  0  0  0
 10 15  1  0  0  0  0
 10 16  1  0  0  0  0
 11 10  1  0  0  0  0
 12 11  1  0  0  0  0
 13 12  2  0  0  0  0
 14 11  1  1  0  0  0
 14 22  5  0  0  0  0
 18 14  5  0  0  0  0
 18 19  5  0  0  0  0
 18 25  1  0  0  0  0
 19 24  1  0  0  0  0
 20 19  5  0  0  0  0
 20 23  1  6  0  0  0
 21 20  5  0  0  0  0
 21 27  1  0  0  0  0
 22 21  5  0  0  0  0
 22 26  1  0  0  0  0
 28 23  2  0  0  0  0
 29 28  1  0  0  0  0
 29 33  1  0  0  0  0
 29 37  1  1  0  0  0
 30 29  1  0  0  0  0
 30 35  1  0  0  0  0
 30 36  1  0  0  0  0
 31 30  1  0  0  0  0
 32 31  1  0  0  0  0
 33 32  2  0  0  0  0
 34 31  1  0  0  0  0
 34 39  2  0  0  0  0
 38 34  1  0  0  0  0
 40 38  1  0  0  0  0
M  END
