
 OpenBabel06022114183D

 40 41  0  0  1  0  0  0  0  0999 V2000
    1.1770   -1.1590   -0.3620 O   0  0  0  0  0  0  0  0  0  0  0  0
    0.0630   -0.4060   -0.3620 C   0  0  0  0  0  0  0  0  0  0  0  0
   -1.0380   -0.9230   -0.4280 O   0  0  0  0  0  0  0  0  0  0  0  0
    0.1530    0.9660   -0.0310 C   0  0  0  0  0  0  0  0  0  0  0  0
    2.0360   -0.7470   -0.1800 H   0  0  0  0  0  0  0  0  0  0  0  0
    0.2090    2.1190    0.2460 C   0  0  0  0  0  0  0  0  0  0  0  0
    0.2790    3.5070    0.5790 C   0  0  1  0  0  0  0  0  0  0  0  0
    1.2030    4.2260   -0.1700 O   0  0  0  0  0  0  0  0  0  0  0  0
   -0.6140    5.5930    0.6520 C   0  0  0  0  0  0  0  0  0  0  0  0
   -1.0350    4.1900    0.4220 C   0  0  0  0  0  0  0  0  0  0  0  0
    1.4050    6.5160   -0.8220 C   0  0  2  0  0  0  0  0  0  0  0  0
   -1.3510    4.0810   -0.6410 H   0  0  0  0  0  0  0  0  0  0  0  0
   -0.6460    5.8470    1.7370 H   0  0  0  0  0  0  0  0  0  0  0  0
   -1.3570    6.2400    0.1500 H   0  0  0  0  0  0  0  0  0  0  0  0
   -1.8350    3.8330    1.1000 H   0  0  0  0  0  0  0  0  0  0  0  0
    1.4750    5.7110    1.1720 H   0  0  0  0  0  0  0  0  0  0  0  0
    0.8910    5.5350    0.2280 C   0  0  2  0  0  0  0  0  0  0  0  0
    0.6370    3.5240    1.6350 H   0  0  0  0  0  0  0  0  0  0  0  0
    2.5060    7.1630   -0.2680 O   0  0  0  0  0  0  0  0  0  0  0  0
    0.5020    8.4500    0.0550 C   0  0  0  0  0  0  0  0  0  0  0  0
    0.4840    7.6210   -1.1490 C   0  0  0  0  0  0  0  0  0  0  0  0
    2.7480    9.4310    0.1200 C   0  0  0  0  0  0  0  0  0  0  0  0
   -0.4800    7.2790   -1.5510 H   0  0  0  0  0  0  0  0  0  0  0  0
    0.1990    9.3820   -0.3870 H   0  0  0  0  0  0  0  0  0  0  0  0
   -0.1830    8.2450    0.9000 H   0  0  0  0  0  0  0  0  0  0  0  0
   -0.5550    7.4390   -1.4630 H   0  0  0  0  0  0  0  0  0  0  0  0
    2.1040    8.0400    1.5540 H   0  0  0  0  0  0  0  0  0  0  0  0
    1.9580    8.2540    0.4670 C   0  0  2  0  0  0  0  0  0  0  0  0
    1.6880    6.0210   -1.7730 H   0  0  0  0  0  0  0  0  0  0  0  0
    2.2980   10.7040    0.0220 C   0  0  0  0  0  0  0  0  0  0  0  0
    2.7720   11.2470    0.0000 C   0  0  0  0  0  0  0  0  0  0  0  0
    1.2460   10.9490    0.1980 H   0  0  0  0  0  0  0  0  0  0  0  0
    3.7720    9.1380   -0.0370 H   0  0  0  0  0  0  0  0  0  0  0  0
    2.8184   12.7487    0.0000 C   0  0  0  0  0  0  0  0  0  0  0  0
    2.9355   13.6885    0.0000 C   0  0  0  0  0  0  0  0  0  0  0  0
    1.0914   12.8348    0.0000 H   0  0  0  0  0  0  0  0  0  0  0  0
    3.8254   11.2622    0.0000 H   0  0  0  0  0  0  0  0  0  0  0  0
    1.2588   15.2014    0.0000 O   0  0  0  0  0  0  0  0  0  0  0  0
    4.2463   14.9775    0.0000 O   0  0  0  0  0  0  0  0  0  0  0  0
    1.1501   16.7116    0.0000 H   0  0  0  0  0  0  0  0  0  0  0  0
  1  5  1  0  0  0  0
  2  1  1  0  0  0  0
  3  2  2  0  0  0  0
  4  2  1  0  0  0  0
  6  4  3  0  0  0  0
  7  6  1  0  0  0  0
  7 10  1  0  0  0  0
  7 18  1  1  0  0  0
  8  7  1  0  0  0  0
  9 17  1  0  0  0  0
  9 14  1  0  0  0  0
 10  9  1  0  0  0  0
 10 15  1  0  0  0  0
 11 17  1  0  0  0  0
 11 21  1  0  0  0  0
 11 29  1  6  0  0  0
 12 10  1  0  0  0  0
 13  9  1  0  0  0  0
 17  8  1  0  0  0  0
 17 16  1  1  0  0  0
 19 11  1  0  0  0  0
 20 28  1  0  0  0  0
 20 25  1  0  0  0  0
 21 20  1  0  0  0  0
 21 26  1  0  0  0  0
 22 28  1  0  0  0  0
 22 33  1  0  0  0  0
 23 21  1  0  0  0  0
 24 20  1  0  0  0  0
 28 19  1  0  0  0  0
 28 27  1  1  0  0  0
 30 22  2  0  0  0  0
 30 32  1  0  0  0  0
 31 30  1  0  0  0  0
 31 37  1  0  0  0  0
 34 31  2  0  0  0  0
 34 36  1  0  0  0  0
 35 34  1  0  0  0  0
 35 39  2  0  0  0  0
 38 35  1  0  0  0  0
 40 38  1  0  0  0  0
M  END
