
 OpenBabel07202119143D

 63 67  0  0  1  0  0  0  0  0999 V2000
    1.2116    0.6995    0.0000 O   0  0  0  0  0  0  0  0  0  0  0  0
   -0.0044    1.6179    0.0000 C   0  0  0  0  0  0  0  0  0  0  0  0
   -1.2116    0.6995    0.0000 O   0  0  0  0  0  0  0  0  0  0  0  0
    0.0000    2.7980    0.0000 C   0  0  1  0  0  0  0  0  0  0  0  0
    2.5032    0.4173    0.0000 H   0  0  0  0  0  0  0  0  0  0  0  0
   -0.9818    3.2355    0.0000 C   0  0  0  0  0  0  0  0  0  0  0  0
   -1.0219    4.3861    0.0000 C   0  0  0  0  0  0  0  0  0  0  0  0
   -0.0724    5.0410    0.0000 C   0  0  1  0  0  0  0  0  0  0  0  0
    0.8843    4.4585    0.0000 C   0  0  0  0  0  0  0  0  0  0  0  0
    0.9433    3.2211    0.0000 C   0  0  0  0  0  0  0  0  0  0  0  0
   -0.0767    6.1129    0.0000 C   0  0  1  0  0  0  0  0  0  0  0  0
   -1.8767    5.0221    0.0000 H   0  0  0  0  0  0  0  0  0  0  0  0
   -1.7954    2.6693    0.0000 H   0  0  0  0  0  0  0  0  0  0  0  0
    2.0691    2.7807    0.0000 H   0  0  0  0  0  0  0  0  0  0  0  0
    1.9192    5.1321    0.0000 H   0  0  0  0  0  0  0  0  0  0  0  0
    0.6496    6.6617    0.0000 C   0  0  0  0  0  0  0  0  0  0  0  0
    0.3966    7.4143    0.0000 N   0  0  0  0  0  0  0  0  0  0  0  0
   -0.4949    7.3991    0.0000 N   0  0  0  0  0  0  0  0  0  0  0  0
   -0.7842    6.6195    0.0000 N   0  0  0  0  0  0  0  0  0  0  0  0
    0.3880    8.3429    0.0000 C   0  0  0  0  0  0  0  0  0  0  0  0
    1.7321    6.8586    0.0000 H   0  0  0  0  0  0  0  0  0  0  0  0
    0.9777    5.6853    0.0000 H   0  0  0  0  0  0  0  0  0  0  0  0
   -0.8835    5.7927    0.0000 H   0  0  0  0  0  0  0  0  0  0  0  0
    0.4359    9.8711    0.0000 C   0  0  0  0  0  0  0  0  0  0  0  0
    0.5126   11.0180    0.0000 C   0  0  1  0  0  0  0  0  0  0  0  0
   -1.2926    9.9307    0.0000 H   0  0  0  0  0  0  0  0  0  0  0  0
    1.4414    8.3581    0.0000 H   0  0  0  0  0  0  0  0  0  0  0  0
    1.3312   11.5501    0.0000 C   0  0  0  0  0  0  0  0  0  0  0  0
    1.1175   12.3743    0.0000 N   0  0  0  0  0  0  0  0  0  0  0  0
    0.1627   12.4256    0.0000 N   0  0  0  0  0  0  0  0  0  0  0  0
   -0.2058   11.6136    0.0000 N   0  0  0  0  0  0  0  0  0  0  0  0
    1.2177   13.1347    0.0000 N   0  0  0  0  0  0  0  0  0  0  0  0
    2.5040   11.6786    0.0000 H   0  0  0  0  0  0  0  0  0  0  0  0
    1.6081   10.4807    0.0000 H   0  0  0  0  0  0  0  0  0  0  0  0
   -0.3747   10.7367    0.0000 H   0  0  0  0  0  0  0  0  0  0  0  0
    1.1790   14.0628    0.0000 N   0  0  0  0  0  0  0  0  0  0  0  0
    1.1995   15.0596    0.0000 C   0  0  1  0  0  0  0  0  0  0  0  0
    1.8874   15.5533    0.0000 C   0  0  0  0  0  0  0  0  0  0  0  0
    1.6693   16.2588    0.0000 N   0  0  0  0  0  0  0  0  0  0  0  0
    0.8400   16.2651    0.0000 N   0  0  0  0  0  0  0  0  0  0  0  0
    0.5533   15.5468    0.0000 N   0  0  0  0  0  0  0  0  0  0  0  0
    1.7215   16.8889    0.0000 N   0  0  0  0  0  0  0  0  0  0  0  0
    2.8983   15.7116    0.0000 H   0  0  0  0  0  0  0  0  0  0  0  0
    2.1701   14.6379    0.0000 H   0  0  0  0  0  0  0  0  0  0  0  0
    0.4421   14.7803    0.0000 H   0  0  0  0  0  0  0  0  0  0  0  0
    1.6826   17.7940    0.0000 N   0  0  0  0  0  0  0  0  0  0  0  0
    1.7033   18.8137    0.0000 C   0  0  0  0  0  0  0  0  0  0  0  0
    1.6522   20.1652    0.0000 C   0  0  0  0  0  0  0  0  0  0  0  0
    1.7233   21.4151    0.0000 C   0  0  1  0  0  0  0  0  0  0  0  0
    2.7568   21.9396    0.0000 O   0  0  0  0  0  0  0  0  0  0  0  0
    1.3147   23.0061    0.0000 C   0  0  0  0  0  0  0  0  0  0  0  0
    0.8624   21.9542    0.0000 C   0  0  0  0  0  0  0  0  0  0  0  0
    2.5039   24.0587    0.0000 C   0  0  0  0  0  0  0  0  0  0  0  0
   -0.4657   21.9630    0.0000 H   0  0  0  0  0  0  0  0  0  0  0  0
    0.7644   24.2163    0.0000 H   0  0  0  0  0  0  0  0  0  0  0  0
   -0.3775   23.0917    0.0000 H   0  0  0  0  0  0  0  0  0  0  0  0
    0.2495   20.5353    0.0000 H   0  0  0  0  0  0  0  0  0  0  0  0
    4.1118   22.8051    0.0000 H   0  0  0  0  0  0  0  0  0  0  0  0
    2.3925   22.9588    0.0000 C   0  0  2  0  0  0  0  0  0  0  0  0
    2.8348   20.5706    0.0000 H   0  0  0  0  0  0  0  0  0  0  0  0
    0.8273   25.5716    0.0000 O   0  0  0  0  0  0  0  0  0  0  0  0
    3.8147   25.3477    0.0000 O   0  0  0  0  0  0  0  0  0  0  0  0
    0.7186   27.0818    0.0000 H   0  0  0  0  0  0  0  0  0  0  0  0
  1  5  1  0  0  0  0
  2  1  1  0  0  0  0
  3  2  2  0  0  0  0
  4  2  1  1  0  0  0
  4 10  5  0  0  0  0
  6  4  5  0  0  0  0
  6  7  5  0  0  0  0
  6 13  1  0  0  0  0
  7 12  1  0  0  0  0
  8  7  5  6  0  0  0
  8 11  1  0  0  0  0
  9  8  5  0  0  0  0
  9 15  1  0  0  0  0
 10  9  5  0  0  0  0
 10 14  1  0  0  0  0
 11 19  1  0  0  0  0
 11 23  1  1  0  0  0
 16 11  1  0  0  0  0
 16 21  1  0  0  0  0
 16 22  1  0  0  0  0
 17 16  1  0  0  0  0
 18 17  1  0  0  0  0
 19 18  2  0  0  0  0
 20 17  1  0  0  0  0
 20 27  1  0  0  0  0
 24 20  2  3  0  0  0
 24 26  1  0  0  0  0
 25 24  1  0  0  0  0
 25 31  1  0  0  0  0
 25 35  1  1  0  0  0
 28 25  1  0  0  0  0
 28 33  1  0  0  0  0
 28 34  1  0  0  0  0
 29 28  1  0  0  0  0
 30 29  1  0  0  0  0
 31 30  2  0  0  0  0
 32 29  1  0  0  0  0
 36 32  2  0  0  0  0
 37 36  1  0  0  0  0
 37 41  1  0  0  0  0
 37 45  1  1  0  0  0
 38 37  1  0  0  0  0
 38 43  1  0  0  0  0
 38 44  1  0  0  0  0
 39 38  1  0  0  0  0
 40 39  1  0  0  0  0
 41 40  2  0  0  0  0
 42 39  1  0  0  0  0
 46 42  2  0  0  0  0
 47 46  1  0  0  0  0
 48 47  3  0  0  0  0
 49 48  1  0  0  0  0
 49 52  1  0  0  0  0
 49 60  1  1  0  0  0
 50 49  1  0  0  0  0
 51 59  1  0  0  0  0
 51 56  1  0  0  0  0
 52 51  1  0  0  0  0
 52 57  1  0  0  0  0
 53 59  1  0  0  0  0
 53 62  2  0  0  0  0
 54 52  1  0  0  0  0
 55 51  1  0  0  0  0
 59 50  1  0  0  0  0
 59 58  1  1  0  0  0
 61 53  1  0  0  0  0
 63 61  1  0  0  0  0
M  END
