
 OpenBabel07202118273D

 37 38  0  0  1  0  0  0  0  0999 V2000
    1.2116    0.6995    0.0000 O   0  0  0  0  0  0  0  0  0  0  0  0
    0.0000    1.3990    0.0000 C   0  0  0  0  0  0  0  0  0  0  0  0
   -1.2116    0.6995    0.0000 O   0  0  0  0  0  0  0  0  0  0  0  0
    0.0389    2.5644    0.0000 N   0  0  0  0  0  0  0  0  0  0  0  0
    2.5032    0.4173    0.0000 H   0  0  0  0  0  0  0  0  0  0  0  0
    0.0002    3.4925    0.0000 N   0  0  0  0  0  0  0  0  0  0  0  0
    0.0207    4.4892    0.0000 C   0  0  1  0  0  0  0  0  0  0  0  0
    0.7086    4.9830    0.0000 C   0  0  0  0  0  0  0  0  0  0  0  0
    0.4899    5.8237    0.0000 N   0  0  0  0  0  0  0  0  0  0  0  0
   -0.3387    5.6948    0.0000 N   0  0  0  0  0  0  0  0  0  0  0  0
   -0.6255    4.9765    0.0000 N   0  0  0  0  0  0  0  0  0  0  0  0
    0.5038    6.5521    0.0000 C   0  0  1  0  0  0  0  0  0  0  0  0
    1.7196    5.1413    0.0000 H   0  0  0  0  0  0  0  0  0  0  0  0
    0.9913    4.0676    0.0000 H   0  0  0  0  0  0  0  0  0  0  0  0
   -0.7367    4.2100    0.0000 H   0  0  0  0  0  0  0  0  0  0  0  0
   -0.0981    6.8315   -0.0000 C   0  0  0  0  0  0  0  0  0  0  0  0
   -1.3056    7.6449   -0.0000 C   0  0  1  0  0  0  0  0  0  0  0  0
    1.7448    8.0165    0.0000 C   0  0  1  0  0  0  0  0  0  0  0  0
    1.7126    7.9781    0.0000 C   0  0  1  0  0  0  0  0  0  0  0  0
    1.7095    7.9711    0.0000 C   0  0  0  0  0  0  0  0  0  0  0  0
    0.5268    8.3656    0.0000 C   0  0  0  0  0  0  0  0  0  0  0  0
   -0.5491    7.9757   -0.0000 C   0  0  0  0  0  0  0  0  0  0  0  0
   -0.6057    6.4897    0.0000 H   0  0  0  0  0  0  0  0  0  0  0  0
    1.7809    6.5218    0.0000 H   0  0  0  0  0  0  0  0  0  0  0  0
    1.7120    7.9776    0.0000 C   0  0  0  0  0  0  0  0  0  0  0  0
   -1.9336    8.6047   -0.0000 H   0  0  0  0  0  0  0  0  0  0  0  0
   -0.4823    8.0062   -0.0000 H   0  0  0  0  0  0  0  0  0  0  0  0
   -0.2230    7.8275   -0.0000 H   0  0  0  0  0  0  0  0  0  0  0  0
    1.7118    7.9774    0.0000 C   0  0  0  0  0  0  0  0  0  0  0  0
    1.7112    7.9766    0.0000 H   0  0  0  0  0  0  0  0  0  0  0  0
    1.7117    7.9773    0.0000 H   0  0  0  0  0  0  0  0  0  0  0  0
    1.7124    7.9781    0.0000 H   0  0  0  0  0  0  0  0  0  0  0  0
    1.7112    7.9765    0.0000 H   0  0  0  0  0  0  0  0  0  0  0  0
    1.7129    7.9787    0.0000 H   0  0  0  0  0  0  0  0  0  0  0  0
   -1.1499    9.8785    0.0000 O   0  0  0  0  0  0  0  0  0  0  0  0
    1.8376    9.6546    0.0000 O   0  0  0  0  0  0  0  0  0  0  0  0
   -1.2586   11.3887    0.0000 H   0  0  0  0  0  0  0  0  0  0  0  0
  1  5  1  0  0  0  0
  2  1  1  0  0  0  0
  3  2  2  0  0  0  0
  4  2  1  0  0  0  0
  6  4  2  0  0  0  0
  7  6  1  0  0  0  0
  7 11  1  0  0  0  0
  7 15  1  1  0  0  0
  8  7  1  0  0  0  0
  8 13  1  0  0  0  0
  8 14  1  0  0  0  0
  9  8  1  0  0  0  0
 10  9  1  0  0  0  0
 11 10  2  0  0  0  0
 12  9  1  1  0  0  0
 12 20  5  0  0  0  0
 16 12  5  0  0  0  0
 16 17  5  0  0  0  0
 16 23  1  0  0  0  0
 17 22  1  6  0  0  0
 18 17  5  0  0  0  0
 18 21  1  6  0  0  0
 19 18  5  0  0  0  0
 19 25  1  1  0  0  0
 20 19  5  0  0  0  0
 20 24  1  0  0  0  0
 21 36  2  0  0  0  0
 22 26  1  0  0  0  0
 22 27  1  0  0  0  0
 22 28  1  0  0  0  0
 25 33  1  0  0  0  0
 25 34  1  0  0  0  0
 29 30  1  0  0  0  0
 29 31  1  0  0  0  0
 29 32  1  0  0  0  0
 29 25  1  0  0  0  0
 35 21  1  0  0  0  0
 37 35  1  0  0  0  0
M  END
