
 OpenBabel07202118413D

 35 36  0  0  1  0  0  0  0  0999 V2000
    1.2116    0.6995    0.0000 O   0  0  0  0  0  0  0  0  0  0  0  0
   -0.0044    1.6179    0.0000 C   0  0  0  0  0  0  0  0  0  0  0  0
   -1.2116    0.6995    0.0000 O   0  0  0  0  0  0  0  0  0  0  0  0
    0.0000    2.7980    0.0000 C   0  0  1  0  0  0  0  0  0  0  0  0
    2.5032    0.4173    0.0000 H   0  0  0  0  0  0  0  0  0  0  0  0
   -0.9818    3.2355    0.0000 C   0  0  0  0  0  0  0  0  0  0  0  0
   -1.0219    4.3861    0.0000 C   0  0  0  0  0  0  0  0  0  0  0  0
   -0.1620    4.6552    0.0000 C   0  0  1  0  0  0  0  0  0  0  0  0
    0.8843    4.4585    0.0000 C   0  0  0  0  0  0  0  0  0  0  0  0
    0.9433    3.2211    0.0000 C   0  0  0  0  0  0  0  0  0  0  0  0
   -0.0767    6.1129    0.0000 C   0  0  1  0  0  0  0  0  0  0  0  0
   -1.8767    5.0221    0.0000 H   0  0  0  0  0  0  0  0  0  0  0  0
   -1.7954    2.6693    0.0000 H   0  0  0  0  0  0  0  0  0  0  0  0
    2.0691    2.7807    0.0000 H   0  0  0  0  0  0  0  0  0  0  0  0
    1.9192    5.1321    0.0000 H   0  0  0  0  0  0  0  0  0  0  0  0
    1.8202    7.8097    0.0000 C   0  0  0  0  0  0  0  0  0  0  0  0
    0.8054    9.7119    0.0000 C   0  0  2  0  0  0  0  0  0  0  0  0
   -1.7112    9.6476    0.0000 N   0  0  0  0  0  0  0  0  0  0  0  0
   -2.4747    7.5411    0.0000 N   0  0  0  0  0  0  0  0  0  0  0  0
    0.8932   11.6067    0.0000 C   0  0  0  0  0  0  0  0  0  0  0  0
   -4.5342    6.8675    0.0000 H   0  0  0  0  0  0  0  0  0  0  0  0
   -4.1845   11.4829    0.0000 H   0  0  0  0  0  0  0  0  0  0  0  0
    6.5527    6.2138    0.0000 H   0  0  0  0  0  0  0  0  0  0  0  0
    6.0262    9.5146    0.0000 H   0  0  0  0  0  0  0  0  0  0  0  0
    2.8582    3.9445    0.0000 H   0  0  0  0  0  0  0  0  0  0  0  0
   -1.7286    5.5368    0.0000 H   0  0  0  0  0  0  0  0  0  0  0  0
    0.9396   13.1084    0.0000 C   0  0  0  0  0  0  0  0  0  0  0  0
    1.0567   14.0482    0.0000 N   0  0  0  0  0  0  0  0  0  0  0  0
   -0.7874   13.1945    0.0000 H   0  0  0  0  0  0  0  0  0  0  0  0
    1.9466   11.6219    0.0000 H   0  0  0  0  0  0  0  0  0  0  0  0
    1.0177   14.9533    0.0000 N   0  0  0  0  0  0  0  0  0  0  0  0
    1.0774   15.7394    0.0000 C   0  0  0  0  0  0  0  0  0  0  0  0
   -0.5993   17.2524    0.0000 O   0  0  0  0  0  0  0  0  0  0  0  0
    2.3882   17.0285    0.0000 O   0  0  0  0  0  0  0  0  0  0  0  0
   -0.7080   18.7625    0.0000 H   0  0  0  0  0  0  0  0  0  0  0  0
  1  5  1  0  0  0  0
  2  1  1  0  0  0  0
  3  2  2  0  0  0  0
  4  2  1  1  0  0  0
  4 10  5  0  0  0  0
  6  4  5  0  0  0  0
  6  7  5  0  0  0  0
  6 13  1  0  0  0  0
  7 12  1  0  0  0  0
  8  7  5  6  0  0  0
  8 11  1  0  0  0  0
  9  8  5  0  0  0  0
  9 15  1  0  0  0  0
 10  9  5  0  0  0  0
 10 14  1  0  0  0  0
 11 19  1  0  0  0  0
 11 26  1  1  0  0  0
 16 11  1  0  0  0  0
 16 23  1  0  0  0  0
 16 25  1  0  0  0  0
 17 16  1  0  0  0  0
 17 24  1  1  0  0  0
 18 17  1  0  0  0  0
 19 18  1  0  0  0  0
 20 17  1  0  0  0  0
 20 30  1  0  0  0  0
 21 19  1  0  0  0  0
 22 18  1  0  0  0  0
 27 20  2  0  0  0  0
 27 29  1  0  0  0  0
 28 27  1  0  0  0  0
 31 28  2  0  0  0  0
 32 31  1  0  0  0  0
 32 34  2  0  0  0  0
 33 32  1  0  0  0  0
 35 33  1  0  0  0  0
M  END
