
 OpenBabel06022114453D

 46 48  0  0  1  0  0  0  0  0999 V2000
    0.8330   -1.1280    0.4930 O   0  0  0  0  0  0  0  0  0  0  0  0
   -0.2400   -0.4390    0.0470 C   0  0  0  0  0  0  0  0  0  0  0  0
   -1.2900   -1.0370   -0.1230 O   0  0  0  0  0  0  0  0  0  0  0  0
   -0.1910    1.0320   -0.2800 C   0  0  2  0  0  0  0  0  0  0  0  0
    1.7080   -0.7360    0.5990 H   0  0  0  0  0  0  0  0  0  0  0  0
    1.1070    1.8270    0.0120 C   0  0  0  0  0  0  0  0  0  0  0  0
    0.5240    3.0920    0.3570 N   0  0  0  0  0  0  0  0  0  0  0  0
   -0.7840    2.9260    0.6960 N   0  0  0  0  0  0  0  0  0  0  0  0
   -1.1960    1.7860    0.4340 N   0  0  0  0  0  0  0  0  0  0  0  0
    1.0570    4.3490    0.1300 C   0  0  0  0  0  0  0  0  0  0  0  0
    1.7990    1.8540   -0.8580 H   0  0  0  0  0  0  0  0  0  0  0  0
    1.6120    1.4580    0.9300 H   0  0  0  0  0  0  0  0  0  0  0  0
   -0.4360    1.1600   -1.3590 H   0  0  0  0  0  0  0  0  0  0  0  0
    1.3770    5.4980   -0.0290 C   0  0  0  0  0  0  0  0  0  0  0  0
    1.6051    7.4024    0.0000 C   0  0  1  0  0  0  0  0  0  0  0  0
   -0.4641    7.1673    0.0000 C   0  0  1  0  0  0  0  0  0  0  0  0
   -1.6919    8.9342   -0.0000 C   0  0  1  0  0  0  0  0  0  0  0  0
    1.5736    9.3164    0.0000 C   0  0  1  0  0  0  0  0  0  0  0  0
    2.1679    7.1804    0.0000 C   0  0  1  0  0  0  0  0  0  0  0  0
    2.2999    7.0291   -0.0000 C   0  0  2  0  0  0  0  0  0  0  0  0
    1.6090   10.0590    0.0000 C   0  0  1  0  0  0  0  0  0  0  0  0
   -0.1971    9.3595   -0.0000 C   0  0  0  0  0  0  0  0  0  0  0  0
   -0.4695    7.1669    0.0000 Cl  0  0  0  0  0  0  0  0  0  0  0  0
    2.1853    7.0563    0.0000 C   0  0  0  0  0  0  0  0  0  0  0  0
    2.2144    7.0834    0.0000 F   0  0  0  0  0  0  0  0  0  0  0  0
    2.1527    7.0844    0.0000 H   0  0  0  0  0  0  0  0  0  0  0  0
    2.1723    7.0593    0.0000 H   0  0  0  0  0  0  0  0  0  0  0  0
    2.2239    7.0229    0.0000 H   0  0  0  0  0  0  0  0  0  0  0  0
    2.2121    7.0499    0.0000 O   0  0  0  0  0  0  0  0  0  0  0  0
   -2.1112    9.9644   -0.0000 H   0  0  0  0  0  0  0  0  0  0  0  0
   -0.0753    9.3957   -0.0000 H   0  0  0  0  0  0  0  0  0  0  0  0
    0.3431    9.1888   -0.0000 H   0  0  0  0  0  0  0  0  0  0  0  0
    2.2198   10.3760    0.0000 O   0  0  0  0  0  0  0  0  0  0  0  0
    1.3578   11.0014    0.0000 C   0  0  0  0  0  0  0  0  0  0  0  0
    1.0949   10.3744    0.0000 C   0  0  0  0  0  0  0  0  0  0  0  0
    2.0727   11.5378    0.0000 C   0  0  0  0  0  0  0  0  0  0  0  0
    0.3063   10.3724    0.0000 H   0  0  0  0  0  0  0  0  0  0  0  0
    1.0244   11.7170    0.0000 H   0  0  0  0  0  0  0  0  0  0  0  0
    0.3525   11.0431    0.0000 H   0  0  0  0  0  0  0  0  0  0  0  0
    0.7387    9.5286    0.0000 H   0  0  0  0  0  0  0  0  0  0  0  0
    3.0196   10.8973    0.0000 H   0  0  0  0  0  0  0  0  0  0  0  0
    1.9980   10.9792    0.0000 C   0  0  2  0  0  0  0  0  0  0  0  0
    2.2736    9.5636    0.0000 H   0  0  0  0  0  0  0  0  0  0  0  0
    0.3961   13.0507    0.0000 O   0  0  0  0  0  0  0  0  0  0  0  0
    3.3835   12.8268    0.0000 O   0  0  0  0  0  0  0  0  0  0  0  0
    0.2874   14.5609    0.0000 H   0  0  0  0  0  0  0  0  0  0  0  0
  1  5  1  0  0  0  0
  2  1  1  0  0  0  0
  3  2  2  0  0  0  0
  4  2  1  0  0  0  0
  4  9  1  0  0  0  0
  4 13  1  6  0  0  0
  6  4  1  0  0  0  0
  6 11  1  0  0  0  0
  6 12  1  0  0  0  0
  7  6  1  0  0  0  0
  8  7  1  0  0  0  0
  9  8  2  0  0  0  0
 10  7  1  0  0  0  0
 14 10  3  0  0  0  0
 15 14  1  6  0  0  0
 15 20  5  0  0  0  0
 16 15  5  0  0  0  0
 16 17  5  0  0  0  0
 16 23  1  6  0  0  0
 17 22  1  6  0  0  0
 18 17  5  0  0  0  0
 18 21  1  6  0  0  0
 19 18  5  0  0  0  0
 19 25  1  1  0  0  0
 20 19  5  0  0  0  0
 20 29  1  6  0  0  0
 21 35  1  0  0  0  0
 21 43  1  1  0  0  0
 22 30  1  0  0  0  0
 22 31  1  0  0  0  0
 22 32  1  0  0  0  0
 24 26  1  0  0  0  0
 24 27  1  0  0  0  0
 24 28  1  0  0  0  0
 24 29  1  0  0  0  0
 33 21  1  0  0  0  0
 34 42  1  0  0  0  0
 34 39  1  0  0  0  0
 35 34  1  0  0  0  0
 35 40  1  0  0  0  0
 36 42  1  0  0  0  0
 36 45  2  0  0  0  0
 37 35  1  0  0  0  0
 38 34  1  0  0  0  0
 42 33  1  0  0  0  0
 42 41  1  1  0  0  0
 44 36  1  0  0  0  0
 46 44  1  0  0  0  0
M  END
