
 OpenBabel06022113523D

 33 34  0  0  1  0  0  0  0  0999 V2000
    1.0770   -1.1270   -0.2340 O   0  0  0  0  0  0  0  0  0  0  0  0
    0.0210   -0.2920   -0.1920 C   0  0  0  0  0  0  0  0  0  0  0  0
   -1.1120   -0.7400   -0.1230 O   0  0  0  0  0  0  0  0  0  0  0  0
    0.2410    1.1250   -0.1550 C   0  0  0  0  0  0  0  0  0  0  0  0
    1.9810   -0.7790   -0.2270 H   0  0  0  0  0  0  0  0  0  0  0  0
    0.4570    2.3060   -0.1290 C   0  0  0  0  0  0  0  0  0  0  0  0
    0.6210    3.6970   -0.0520 C   0  0  0  0  0  0  0  0  0  0  0  0
    0.6140    4.8800    0.1470 C   0  0  0  0  0  0  0  0  0  0  0  0
    0.3900    6.2420    0.6170 C   0  0  1  0  0  0  0  0  0  0  0  0
    1.1540    7.2360   -0.0160 O   0  0  0  0  0  0  0  0  0  0  0  0
   -0.9680    8.0880    0.7210 C   0  0  0  0  0  0  0  0  0  0  0  0
   -1.0430    6.6340    0.3870 C   0  0  0  0  0  0  0  0  0  0  0  0
    0.6290    9.5450   -0.6630 C   0  0  2  0  0  0  0  0  0  0  0  0
   -1.2570    6.5280   -0.7010 H   0  0  0  0  0  0  0  0  0  0  0  0
   -1.0910    8.2040    1.8210 H   0  0  0  0  0  0  0  0  0  0  0  0
   -1.7590    8.6690    0.1980 H   0  0  0  0  0  0  0  0  0  0  0  0
   -1.7970    6.0650    0.9760 H   0  0  0  0  0  0  0  0  0  0  0  0
    0.9750    8.7940    1.3240 H   0  0  0  0  0  0  0  0  0  0  0  0
    0.4970    8.4330    0.3840 C   0  0  2  0  0  0  0  0  0  0  0  0
    0.5960    6.2350    1.7130 H   0  0  0  0  0  0  0  0  0  0  0  0
    2.0850   10.0760   -0.7550 C   0  0  0  0  0  0  0  0  0  0  0  0
    1.8510   11.4810   -0.6710 N   0  0  0  0  0  0  0  0  0  0  0  0
    0.5770   11.7490   -0.2830 N   0  0  0  0  0  0  0  0  0  0  0  0
   -0.1230   10.7260   -0.2710 N   0  0  0  0  0  0  0  0  0  0  0  0
    2.4059   11.6844    0.0000 N   0  0  0  0  0  0  0  0  0  0  0  0
    2.6860    9.8090    0.1420 H   0  0  0  0  0  0  0  0  0  0  0  0
    2.6080    9.7810   -1.6870 H   0  0  0  0  0  0  0  0  0  0  0  0
    0.2460    9.2230   -1.6560 H   0  0  0  0  0  0  0  0  0  0  0  0
    2.3670   12.5895    0.0000 N   0  0  0  0  0  0  0  0  0  0  0  0
    2.4267   13.3757    0.0000 C   0  0  0  0  0  0  0  0  0  0  0  0
    0.7500   14.8886    0.0000 O   0  0  0  0  0  0  0  0  0  0  0  0
    3.7374   14.6647    0.0000 O   0  0  0  0  0  0  0  0  0  0  0  0
    0.6413   16.3987    0.0000 H   0  0  0  0  0  0  0  0  0  0  0  0
  1  5  1  0  0  0  0
  2  1  1  0  0  0  0
  3  2  2  0  0  0  0
  4  2  1  0  0  0  0
  6  4  3  0  0  0  0
  7  6  1  0  0  0  0
  8  7  3  0  0  0  0
  9  8  1  0  0  0  0
  9 12  1  0  0  0  0
  9 20  1  1  0  0  0
 10  9  1  0  0  0  0
 11 19  1  0  0  0  0
 11 16  1  0  0  0  0
 12 11  1  0  0  0  0
 12 17  1  0  0  0  0
 13 19  1  0  0  0  0
 13 24  1  0  0  0  0
 13 28  1  6  0  0  0
 14 12  1  0  0  0  0
 15 11  1  0  0  0  0
 19 10  1  0  0  0  0
 19 18  1  1  0  0  0
 21 13  1  0  0  0  0
 21 26  1  0  0  0  0
 21 27  1  0  0  0  0
 22 21  1  0  0  0  0
 23 22  1  0  0  0  0
 24 23  2  0  0  0  0
 25 22  1  0  0  0  0
 29 25  2  0  0  0  0
 30 29  1  0  0  0  0
 30 32  2  0  0  0  0
 31 30  1  0  0  0  0
 33 31  1  0  0  0  0
M  END
