
 OpenBabel07202118273D

 54 56  0  0  1  0  0  0  0  0999 V2000
    1.2116    0.6995    0.0000 O   0  0  0  0  0  0  0  0  0  0  0  0
    0.0000    1.3990    0.0000 C   0  0  0  0  0  0  0  0  0  0  0  0
   -1.2116    0.6995    0.0000 O   0  0  0  0  0  0  0  0  0  0  0  0
    0.0000    2.7980    0.0000 C   0  0  0  0  0  0  0  0  0  0  0  0
    2.5032    0.4173    0.0000 H   0  0  0  0  0  0  0  0  0  0  0  0
   -0.0772    3.9202    0.0000 C   0  0  0  0  0  0  0  0  0  0  0  0
    0.1245    5.4731    0.0000 C   0  0  1  0  0  0  0  0  0  0  0  0
   -1.6806    4.3858    0.0000 H   0  0  0  0  0  0  0  0  0  0  0  0
    1.0534    2.8132    0.0000 H   0  0  0  0  0  0  0  0  0  0  0  0
    2.2823    7.1445    0.0000 C   0  0  0  0  0  0  0  0  0  0  0  0
    1.3459    9.3018    0.0000 C   0  0  2  0  0  0  0  0  0  0  0  0
   -1.3560    9.3782    0.0000 N   0  0  0  0  0  0  0  0  0  0  0  0
   -2.3324    7.1827    0.0000 N   0  0  0  0  0  0  0  0  0  0  0  0
    1.5785   11.2765    0.0000 C   0  0  1  0  0  0  0  0  0  0  0  0
   -4.5865    6.6182    0.0000 H   0  0  0  0  0  0  0  0  0  0  0  0
   -3.8626   11.5288    0.0000 H   0  0  0  0  0  0  0  0  0  0  0  0
    7.2239    5.0786    0.0000 H   0  0  0  0  0  0  0  0  0  0  0  0
    6.9108    8.6495    0.0000 H   0  0  0  0  0  0  0  0  0  0  0  0
    3.0997    2.9311    0.0000 H   0  0  0  0  0  0  0  0  0  0  0  0
   -1.6862    4.9821    0.0000 H   0  0  0  0  0  0  0  0  0  0  0  0
    3.0391   12.1241    0.0000 C   0  0  0  0  0  0  0  0  0  0  0  0
    2.7420   13.5667    0.0000 N   0  0  0  0  0  0  0  0  0  0  0  0
    1.0970   13.7388    0.0000 N   0  0  0  0  0  0  0  0  0  0  0  0
    0.3895   12.3681    0.0000 N   0  0  0  0  0  0  0  0  0  0  0  0
    2.9346   15.2785    0.0000 C   0  0  0  0  0  0  0  0  0  0  0  0
    5.0764   12.2437    0.0000 H   0  0  0  0  0  0  0  0  0  0  0  0
    3.4240   10.2526    0.0000 H   0  0  0  0  0  0  0  0  0  0  0  0
    0.0211   10.8680    0.0000 H   0  0  0  0  0  0  0  0  0  0  0  0
    2.8574   16.4008    0.0000 C   0  0  0  0  0  0  0  0  0  0  0  0
    3.0592   17.9536    0.0000 C   0  0  1  0  0  0  0  0  0  0  0  0
    1.2540   16.8663    0.0000 H   0  0  0  0  0  0  0  0  0  0  0  0
    3.9880   15.2937    0.0000 H   0  0  0  0  0  0  0  0  0  0  0  0
    5.2170   19.6250    0.0000 C   0  0  0  0  0  0  0  0  0  0  0  0
    4.2756   21.7367    0.0000 C   0  0  2  0  0  0  0  0  0  0  0  0
    1.5786   21.8587    0.0000 N   0  0  0  0  0  0  0  0  0  0  0  0
    0.6023   19.6632    0.0000 N   0  0  0  0  0  0  0  0  0  0  0  0
    4.5131   23.7570    0.0000 C   0  0  0  0  0  0  0  0  0  0  0  0
   -1.6519   19.0987    0.0000 H   0  0  0  0  0  0  0  0  0  0  0  0
   -0.9280   24.0094    0.0000 H   0  0  0  0  0  0  0  0  0  0  0  0
   10.1585   17.5591    0.0000 H   0  0  0  0  0  0  0  0  0  0  0  0
    9.8454   21.1300    0.0000 H   0  0  0  0  0  0  0  0  0  0  0  0
    6.0343   15.4116    0.0000 H   0  0  0  0  0  0  0  0  0  0  0  0
    1.2484   17.4626    0.0000 H   0  0  0  0  0  0  0  0  0  0  0  0
    4.4879   25.1075    0.0000 C   0  0  0  0  0  0  0  0  0  0  0  0
    4.5331   26.3584    0.0000 C   0  0  0  0  0  0  0  0  0  0  0  0
    4.5079   27.7090    0.0000 C   0  0  0  0  0  0  0  0  0  0  0  0
    4.5530   28.9599    0.0000 C   0  0  0  0  0  0  0  0  0  0  0  0
    4.5995   30.4616    0.0000 C   0  0  0  0  0  0  0  0  0  0  0  0
    4.7165   31.4014    0.0000 C   0  0  0  0  0  0  0  0  0  0  0  0
    2.8724   30.5477    0.0000 H   0  0  0  0  0  0  0  0  0  0  0  0
    5.6064   28.9751    0.0000 H   0  0  0  0  0  0  0  0  0  0  0  0
    3.0399   32.9143    0.0000 O   0  0  0  0  0  0  0  0  0  0  0  0
    6.0273   32.6904    0.0000 O   0  0  0  0  0  0  0  0  0  0  0  0
    2.9312   34.4245    0.0000 H   0  0  0  0  0  0  0  0  0  0  0  0
  1  5  1  0  0  0  0
  2  1  1  0  0  0  0
  3  2  2  0  0  0  0
  4  2  1  0  0  0  0
  4  9  1  0  0  0  0
  6  4  2  0  0  0  0
  6  8  1  0  0  0  0
  7  6  1  0  0  0  0
  7 13  1  0  0  0  0
  7 20  1  1  0  0  0
 10  7  1  0  0  0  0
 10 17  1  0  0  0  0
 10 19  1  0  0  0  0
 11 10  1  0  0  0  0
 11 18  1  1  0  0  0
 12 11  1  0  0  0  0
 13 12  1  0  0  0  0
 14 11  1  0  0  0  0
 14 24  1  0  0  0  0
 14 28  1  1  0  0  0
 15 13  1  0  0  0  0
 16 12  1  0  0  0  0
 21 14  1  0  0  0  0
 21 26  1  0  0  0  0
 21 27  1  0  0  0  0
 22 21  1  0  0  0  0
 23 22  1  0  0  0  0
 24 23  2  0  0  0  0
 25 22  1  0  0  0  0
 25 32  1  0  0  0  0
 29 25  2  0  0  0  0
 29 31  1  0  0  0  0
 30 29  1  0  0  0  0
 30 36  1  0  0  0  0
 30 43  1  1  0  0  0
 33 30  1  0  0  0  0
 33 40  1  0  0  0  0
 33 42  1  0  0  0  0
 34 33  1  0  0  0  0
 34 41  1  1  0  0  0
 35 34  1  0  0  0  0
 36 35  1  0  0  0  0
 37 34  1  0  0  0  0
 38 36  1  0  0  0  0
 39 35  1  0  0  0  0
 44 37  3  0  0  0  0
 45 44  1  0  0  0  0
 46 45  3  0  0  0  0
 47 46  1  0  0  0  0
 47 51  1  0  0  0  0
 48 47  2  0  0  0  0
 48 50  1  0  0  0  0
 49 48  1  0  0  0  0
 49 53  2  0  0  0  0
 52 49  1  0  0  0  0
 54 52  1  0  0  0  0
M  END
