
 OpenBabel07202119143D

 48 50  0  0  1  0  0  0  0  0999 V2000
    1.2116    0.6995    0.0000 O   0  0  0  0  0  0  0  0  0  0  0  0
   -0.0004    1.4306    0.0000 C   0  0  0  0  0  0  0  0  0  0  0  0
   -1.2116    0.6995    0.0000 O   0  0  0  0  0  0  0  0  0  0  0  0
    0.0000    2.7980    0.0000 C   0  0  1  0  0  0  0  0  0  0  0  0
    2.5032    0.4173    0.0000 H   0  0  0  0  0  0  0  0  0  0  0  0
    0.9296    3.4943    0.0000 C   0  0  0  0  0  0  0  0  0  0  0  0
    0.5139    4.0656    0.0000 N   0  0  0  0  0  0  0  0  0  0  0  0
   -0.5266    4.4412    0.0000 N   0  0  0  0  0  0  0  0  0  0  0  0
   -0.8998    3.4482    0.0000 N   0  0  0  0  0  0  0  0  0  0  0  0
    0.6050    5.6405    0.0000 C   0  0  1  0  0  0  0  0  0  0  0  0
    2.3116    3.7395    0.0000 H   0  0  0  0  0  0  0  0  0  0  0  0
    1.3428    2.2469    0.0000 H   0  0  0  0  0  0  0  0  0  0  0  0
   -1.0309    2.3940    0.0000 H   0  0  0  0  0  0  0  0  0  0  0  0
    2.6530    7.4752    0.0000 C   0  0  0  0  0  0  0  0  0  0  0  0
    1.5552    9.5295    0.0000 C   0  0  2  0  0  0  0  0  0  0  0  0
   -1.1636    9.4580    0.0000 N   0  0  0  0  0  0  0  0  0  0  0  0
   -1.9868    7.1816    0.0000 N   0  0  0  0  0  0  0  0  0  0  0  0
    1.6485   11.5766    0.0000 C   0  0  0  0  0  0  0  0  0  0  0  0
   -4.2113    6.4523    0.0000 H   0  0  0  0  0  0  0  0  0  0  0  0
   -3.8371   11.4388    0.0000 H   0  0  0  0  0  0  0  0  0  0  0  0
    7.7672    5.7547    0.0000 H   0  0  0  0  0  0  0  0  0  0  0  0
    7.1957    9.3204    0.0000 H   0  0  0  0  0  0  0  0  0  0  0  0
    3.7775    3.3001    0.0000 H   0  0  0  0  0  0  0  0  0  0  0  0
   -1.1792    5.0168    0.0000 H   0  0  0  0  0  0  0  0  0  0  0  0
    1.7035   13.2622    0.0000 C   0  0  0  0  0  0  0  0  0  0  0  0
    1.7731   14.2517   -0.0000 C   0  0  1  0  0  0  0  0  0  0  0  0
   -0.0321   13.1644    0.0000 H   0  0  0  0  0  0  0  0  0  0  0  0
    2.7019   11.5918    0.0000 H   0  0  0  0  0  0  0  0  0  0  0  0
    0.9740   14.6735    0.0000 C   0  0  0  0  0  0  0  0  0  0  0  0
    1.0047   15.6408    0.0000 C   0  0  0  0  0  0  0  0  0  0  0  0
    1.8365   16.1163    0.0000 C   0  0  1  0  0  0  0  0  0  0  0  0
    2.6075   15.5950    0.0000 C   0  0  0  0  0  0  0  0  0  0  0  0
    2.6629   14.6012    0.0000 C   0  0  2  0  0  0  0  0  0  0  0  0
    1.8939   17.0363    0.0000 C   0  0  0  0  0  0  0  0  0  0  0  0
    0.3233   16.2220    0.0000 H   0  0  0  0  0  0  0  0  0  0  0  0
    0.2600   14.2441    0.0000 H   0  0  0  0  0  0  0  0  0  0  0  0
    2.4013   14.3983    0.0000 O   0  0  0  0  0  0  0  0  0  0  0  0
    3.5131   16.1023    0.0000 H   0  0  0  0  0  0  0  0  0  0  0  0
    1.9403   18.5380    0.0000 C   0  0  0  0  0  0  0  0  0  0  0  0
    2.0184   19.7114    0.0000 C   0  0  0  0  0  0  0  0  0  0  0  0
    0.2133   18.6241    0.0000 H   0  0  0  0  0  0  0  0  0  0  0  0
    2.9473   17.0515    0.0000 H   0  0  0  0  0  0  0  0  0  0  0  0
    1.9933   21.0619    0.0000 C   0  0  0  0  0  0  0  0  0  0  0  0
    2.0773   22.0793    0.0000 C   0  0  0  0  0  0  0  0  0  0  0  0
    2.3397   14.3529    0.0000 H   0  0  0  0  0  0  0  0  0  0  0  0
    0.4007   23.5922    0.0000 O   0  0  0  0  0  0  0  0  0  0  0  0
    3.3881   23.3683    0.0000 O   0  0  0  0  0  0  0  0  0  0  0  0
    0.2920   25.1024    0.0000 H   0  0  0  0  0  0  0  0  0  0  0  0
  1  5  1  0  0  0  0
  2  1  1  0  0  0  0
  3  2  2  0  0  0  0
  4  2  1  0  0  0  0
  4  9  1  0  0  0  0
  4 13  1  1  0  0  0
  6  4  1  0  0  0  0
  6 11  1  0  0  0  0
  6 12  1  0  0  0  0
  7  6  1  0  0  0  0
  8  7  1  0  0  0  0
  9  8  2  0  0  0  0
 10  7  1  0  0  0  0
 10 17  1  0  0  0  0
 10 24  1  1  0  0  0
 14 10  1  0  0  0  0
 14 21  1  0  0  0  0
 14 23  1  0  0  0  0
 15 14  1  0  0  0  0
 15 22  1  1  0  0  0
 16 15  1  0  0  0  0
 17 16  1  0  0  0  0
 18 15  1  0  0  0  0
 18 28  1  0  0  0  0
 19 17  1  0  0  0  0
 20 16  1  0  0  0  0
 25 18  2  0  0  0  0
 25 27  1  0  0  0  0
 26 25  1  1  0  0  0
 26 33  5  0  0  0  0
 29 26  5  0  0  0  0
 29 30  5  0  0  0  0
 29 36  1  0  0  0  0
 30 35  1  0  0  0  0
 31 30  5  0  0  0  0
 31 34  1  6  0  0  0
 32 31  5  0  0  0  0
 32 38  1  0  0  0  0
 33 32  5  0  0  0  0
 33 37  1  6  0  0  0
 34 42  1  0  0  0  0
 37 45  1  0  0  0  0
 39 34  2  0  0  0  0
 39 41  1  0  0  0  0
 40 39  1  0  0  0  0
 43 40  3  0  0  0  0
 44 43  1  0  0  0  0
 44 47  2  0  0  0  0
 46 44  1  0  0  0  0
 48 46  1  0  0  0  0
M  END
