
 OpenBabel07202118283D

 33 33  0  0  1  0  0  0  0  0999 V2000
    1.2116    0.6995    0.0000 O   0  0  0  0  0  0  0  0  0  0  0  0
    0.0000    1.3990    0.0000 C   0  0  0  0  0  0  0  0  0  0  0  0
   -1.2116    0.6995    0.0000 O   0  0  0  0  0  0  0  0  0  0  0  0
    0.0389    2.5644    0.0000 N   0  0  0  0  0  0  0  0  0  0  0  0
    2.5032    0.4173    0.0000 H   0  0  0  0  0  0  0  0  0  0  0  0
    0.0000    3.4695    0.0000 N   0  0  0  0  0  0  0  0  0  0  0  0
    0.0597    4.2557    0.0000 N   0  0  0  0  0  0  0  0  0  0  0  0
   -0.0712    4.8271    0.0000 N   0  0  0  0  0  0  0  0  0  0  0  0
    0.0415    6.1805    0.0000 C   0  0  1  0  0  0  0  0  0  0  0  0
    1.8440    7.7149    0.0000 C   0  0  0  0  0  0  0  0  0  0  0  0
    0.9439    9.5067    0.0000 C   0  0  2  0  0  0  0  0  0  0  0  0
   -1.3975    9.5044    0.0000 N   0  0  0  0  0  0  0  0  0  0  0  0
   -2.1555    7.5632    0.0000 N   0  0  0  0  0  0  0  0  0  0  0  0
    1.0688   11.2665    0.0000 C   0  0  0  0  0  0  0  0  0  0  0  0
   -4.0859    6.9840    0.0000 H   0  0  0  0  0  0  0  0  0  0  0  0
   -3.6552   11.2673    0.0000 H   0  0  0  0  0  0  0  0  0  0  0  0
    6.2078    6.1228    0.0000 H   0  0  0  0  0  0  0  0  0  0  0  0
    5.7937    9.2040    0.0000 H   0  0  0  0  0  0  0  0  0  0  0  0
    2.7208    4.0973    0.0000 H   0  0  0  0  0  0  0  0  0  0  0  0
   -1.5076    5.6826    0.0000 H   0  0  0  0  0  0  0  0  0  0  0  0
    1.1152   12.7681    0.0000 C   0  0  0  0  0  0  0  0  0  0  0  0
    1.2323   13.7080    0.0000 N   0  0  0  0  0  0  0  0  0  0  0  0
   -0.6118   12.8542    0.0000 H   0  0  0  0  0  0  0  0  0  0  0  0
    2.1222   11.2816    0.0000 H   0  0  0  0  0  0  0  0  0  0  0  0
    1.1933   14.6131    0.0000 N   0  0  0  0  0  0  0  0  0  0  0  0
    1.2141   15.6328    0.0000 C   0  0  0  0  0  0  0  0  0  0  0  0
    1.2605   17.1345    0.0000 C   0  0  0  0  0  0  0  0  0  0  0  0
    1.3775   18.0743    0.0000 C   0  0  0  0  0  0  0  0  0  0  0  0
   -0.4665   17.2205    0.0000 H   0  0  0  0  0  0  0  0  0  0  0  0
    2.2675   15.6479    0.0000 H   0  0  0  0  0  0  0  0  0  0  0  0
   -0.2991   19.5872    0.0000 O   0  0  0  0  0  0  0  0  0  0  0  0
    2.6883   19.3633    0.0000 O   0  0  0  0  0  0  0  0  0  0  0  0
   -0.4078   21.0974    0.0000 H   0  0  0  0  0  0  0  0  0  0  0  0
  1  5  1  0  0  0  0
  2  1  1  0  0  0  0
  3  2  2  0  0  0  0
  4  2  1  0  0  0  0
  6  4  2  0  0  0  0
  7  6  1  0  0  0  0
  8  7  2  0  0  0  0
  9  8  1  0  0  0  0
  9 13  1  0  0  0  0
  9 20  1  1  0  0  0
 10  9  1  0  0  0  0
 10 17  1  0  0  0  0
 10 19  1  0  0  0  0
 11 10  1  0  0  0  0
 11 18  1  1  0  0  0
 12 11  1  0  0  0  0
 13 12  1  0  0  0  0
 14 11  1  0  0  0  0
 14 24  1  0  0  0  0
 15 13  1  0  0  0  0
 16 12  1  0  0  0  0
 21 14  2  0  0  0  0
 21 23  1  0  0  0  0
 22 21  1  0  0  0  0
 25 22  2  0  0  0  0
 26 25  1  0  0  0  0
 26 30  1  0  0  0  0
 27 26  2  3  0  0  0
 27 29  1  0  0  0  0
 28 27  1  0  0  0  0
 28 32  2  0  0  0  0
 31 28  1  0  0  0  0
 33 31  1  0  0  0  0
M  END
