
 OpenBabel06022114393D

 31 31  0  0  1  0  0  0  0  0999 V2000
    1.4370   -0.4690   -0.2280 O   0  0  0  0  0  0  0  0  0  0  0  0
    0.3140    0.0330    0.3310 C   0  0  0  0  0  0  0  0  0  0  0  0
   -0.5840   -0.7320    0.6440 O   0  0  0  0  0  0  0  0  0  0  0  0
    0.1440    1.5130    0.5790 C   0  0  1  0  0  0  0  0  0  0  0  0
    2.1800    0.0880   -0.4980 H   0  0  0  0  0  0  0  0  0  0  0  0
    1.2810    2.2690    0.1810 O   0  0  0  0  0  0  0  0  0  0  0  0
   -0.6920    3.5130   -0.1770 C   0  0  0  0  0  0  0  0  0  0  0  0
   -1.0550    2.0660   -0.1860 C   0  0  0  0  0  0  0  0  0  0  0  0
    1.5150    4.6100   -0.2520 C   0  0  0  0  0  0  0  0  0  0  0  0
   -2.0440    1.8210    0.2560 H   0  0  0  0  0  0  0  0  0  0  0  0
   -0.7940    3.9020    0.8650 H   0  0  0  0  0  0  0  0  0  0  0  0
   -1.2830    4.1520   -0.8680 H   0  0  0  0  0  0  0  0  0  0  0  0
   -1.0310    1.7070   -1.2430 H   0  0  0  0  0  0  0  0  0  0  0  0
    0.8770    3.1490   -1.6280 H   0  0  0  0  0  0  0  0  0  0  0  0
    0.7760    3.3760   -0.5420 C   0  0  1  0  0  0  0  0  0  0  0  0
   -0.0050    1.6900    1.6690 H   0  0  0  0  0  0  0  0  0  0  0  0
    2.0820    5.6550   -0.0540 C   0  0  0  0  0  0  0  0  0  0  0  0
    2.7420    6.8550    0.1560 N   0  0  0  0  0  0  0  0  0  0  0  0
    2.1280    7.9270    0.0070 N   0  0  0  0  0  0  0  0  0  0  0  0
    2.7880    9.1680    0.1710 C   0  0  0  0  0  0  0  0  0  0  0  0
    2.1090   10.3060    0.0560 C   0  0  0  0  0  0  0  0  0  0  0  0
    2.4570   10.9540    0.0000 C   0  0  0  0  0  0  0  0  0  0  0  0
    1.0440   10.2870   -0.1590 H   0  0  0  0  0  0  0  0  0  0  0  0
    3.8510    9.2050    0.3870 H   0  0  0  0  0  0  0  0  0  0  0  0
    2.5034   12.4557    0.0000 C   0  0  0  0  0  0  0  0  0  0  0  0
    2.6205   13.3955    0.0000 C   0  0  0  0  0  0  0  0  0  0  0  0
    0.7764   12.5418    0.0000 H   0  0  0  0  0  0  0  0  0  0  0  0
    3.5104   10.9692    0.0000 H   0  0  0  0  0  0  0  0  0  0  0  0
    0.9438   14.9084    0.0000 O   0  0  0  0  0  0  0  0  0  0  0  0
    3.9313   14.6845    0.0000 O   0  0  0  0  0  0  0  0  0  0  0  0
    0.8351   16.4186    0.0000 H   0  0  0  0  0  0  0  0  0  0  0  0
  1  5  1  0  0  0  0
  2  1  1  0  0  0  0
  3  2  2  0  0  0  0
  4  2  1  0  0  0  0
  4  8  1  0  0  0  0
  4 16  1  1  0  0  0
  6  4  1  0  0  0  0
  7 15  1  0  0  0  0
  7 12  1  0  0  0  0
  8  7  1  0  0  0  0
  8 13  1  0  0  0  0
  9 15  1  0  0  0  0
 10  8  1  0  0  0  0
 11  7  1  0  0  0  0
 15  6  1  0  0  0  0
 15 14  1  6  0  0  0
 17  9  3  0  0  0  0
 18 17  1  0  0  0  0
 19 18  2  0  0  0  0
 20 19  1  0  0  0  0
 20 24  1  0  0  0  0
 21 20  2  0  0  0  0
 21 23  1  0  0  0  0
 22 21  1  0  0  0  0
 22 28  1  0  0  0  0
 25 22  2  0  0  0  0
 25 27  1  0  0  0  0
 26 25  1  0  0  0  0
 26 30  2  0  0  0  0
 29 26  1  0  0  0  0
 31 29  1  0  0  0  0
M  END
