
 OpenBabel11042013033D

 29 30  0  0  1  0  0  0  0  0999 V2000
    1.3860    0.5770   -0.0310 O   0  0  0  0  0  0  0  0  0  0  0  0
    0.1860    1.1880   -0.0360 C   0  0  0  0  0  0  0  0  0  0  0  0
   -0.8580    0.5470    0.0180 O   0  0  0  0  0  0  0  0  0  0  0  0
    0.2090    2.6830   -0.0510 C   0  0  1  0  0  0  0  0  0  0  0  0
    2.1650    1.1630   -0.0860 H   0  0  0  0  0  0  0  0  0  0  0  0
   -0.9510    3.3350    0.1340 C   0  0  0  0  0  0  0  0  0  0  0  0
   -0.9980    4.6860    0.2040 C   0  0  2  0  0  0  0  0  0  0  0  0
    0.1390    5.4580    0.0790 C   0  0  2  0  0  0  0  0  0  0  0  0
    1.2990    4.7620   -0.1550 C   0  0  2  0  0  0  0  0  0  0  0  0
    1.3200    3.4100   -0.2120 C   0  0  1  0  0  0  0  0  0  0  0  0
    0.0090    7.0080    0.2750 C   0  0  1  0  0  0  0  0  0  0  0  0
   -2.7390    5.3870    0.5280 Br  0  0  0  0  0  0  0  0  0  0  0  0
   -1.8670    2.7540    0.2480 H   0  0  0  0  0  0  0  0  0  0  0  0
    2.4960    2.7660   -0.4130 F   0  0  0  0  0  0  0  0  0  0  0  0
    2.8690    5.4730   -0.3770 Cl  0  0  0  0  0  0  0  0  0  0  0  0
    1.1870    8.0000    0.3210 C   0  0  0  0  0  0  0  0  0  0  0  0
    0.7190    9.2710   -0.3770 C   0  0  1  0  0  0  0  0  0  0  0  0
   -0.7220    9.0770   -0.5910 N   0  0  0  0  0  0  0  0  0  0  0  0
   -0.8910    7.6450   -0.7100 N   0  0  0  0  0  0  0  0  0  0  0  0
    1.0430   10.5480    0.3930 C   0  0  0  0  0  0  0  0  0  0  0  0
   -1.8610    7.3690   -0.5180 H   0  0  0  0  0  0  0  0  0  0  0  0
   -1.2360    9.4980    0.1910 H   0  0  0  0  0  0  0  0  0  0  0  0
    2.0670    7.6970   -0.2320 H   0  0  0  0  0  0  0  0  0  0  0  0
    1.2010    9.3680   -1.3580 H   0  0  0  0  0  0  0  0  0  0  0  0
    1.4870    8.1750    1.3620 H   0  0  0  0  0  0  0  0  0  0  0  0
   -0.4600    7.1200    1.2660 H   0  0  0  0  0  0  0  0  0  0  0  0
    0.0430   11.4630    0.3810 O   0  0  0  0  0  0  0  0  0  0  0  0
    2.1030   10.8110    0.9370 O   0  0  0  0  0  0  0  0  0  0  0  0
    0.4440   12.2690    0.7700 H   0  0  0  0  0  0  0  0  0  0  0  0
  1  5  1  0  0  0  0
  2  1  1  0  0  0  0
  3  2  2  0  0  0  0
  4  2  1  1  0  0  0
  4 10  5  0  0  0  0
  6  4  5  0  0  0  0
  6  7  5  0  0  0  0
  6 13  1  0  0  0  0
  7 12  1  1  0  0  0
  8  7  5  0  0  0  0
  8 11  1  1  0  0  0
  9  8  5  0  0  0  0
  9 15  1  1  0  0  0
 10  9  5  0  0  0  0
 10 14  1  1  0  0  0
 11 19  1  0  0  0  0
 11 26  1  1  0  0  0
 16 11  1  0  0  0  0
 16 23  1  0  0  0  0
 16 25  1  0  0  0  0
 17 16  1  0  0  0  0
 17 24  1  6  0  0  0
 18 17  1  0  0  0  0
 19 18  1  0  0  0  0
 20 17  1  0  0  0  0
 20 28  2  0  0  0  0
 21 19  1  0  0  0  0
 22 18  1  0  0  0  0
 27 20  1  0  0  0  0
 29 27  1  0  0  0  0
M  END
