32

O          1.34700       -0.23700        0.16000
C          0.13300        0.34100        0.27600
O         -0.86700       -0.35900        0.33800
C          0.12800        1.85500        0.23700
H          2.08600        0.32500       -0.12400
C         -0.99900        2.54100       -0.06300
C         -0.91900        3.87900       -0.26500
C          0.17300        4.64000        0.07500
C          1.27300        3.91900        0.47100
C          1.24400        2.56300        0.49100
C          0.04900        6.17100        0.06200
O         -2.02000        4.44000       -0.91600
C         -2.38000        1.90500       -0.09100
H          2.15100        2.04500        0.78600
Br         2.96000        4.60300        1.03000
H         -1.78000        4.64000       -1.84000
H         -3.16200        2.64300        0.14500
H         -2.60900        1.44900       -1.05300
H         -2.50100        1.17700        0.71900
C         -1.16800        6.79100        0.19200
C         -1.33400        8.12800        0.16500
C         -0.26400        8.93800        0.08400
C          0.95700        8.38500        0.01600
C          1.09300        7.03500       -0.02700
C         -0.35600       10.42600        0.06500
H         -2.34100        8.54000        0.23000
H         -2.08600        6.22500        0.31500
H          2.11200        6.70200       -0.14100
H          1.84200        9.00700       -0.03500
O         -1.61600       10.89800        0.01300
O          0.58900       11.19700        0.07200
H         -1.49000       11.87000       -0.01200
