
 OpenBabel11042013033D

 32 33  0  0  1  0  0  0  0  0999 V2000
    1.2650   -0.4150   -0.0600 O   0  0  0  0  0  0  0  0  0  0  0  0
    0.0880    0.2420   -0.0830 C   0  0  0  0  0  0  0  0  0  0  0  0
   -0.9750   -0.3590   -0.1380 O   0  0  0  0  0  0  0  0  0  0  0  0
    0.1820    1.7240    0.0030 C   0  0  2  0  0  0  0  0  0  0  0  0
    2.0600    0.1330    0.0190 H   0  0  0  0  0  0  0  0  0  0  0  0
   -0.9910    2.3870    0.0300 C   0  0  0  0  0  0  0  0  0  0  0  0
   -1.0110    3.7250    0.1370 C   0  0  0  0  0  0  0  0  0  0  0  0
    0.1310    4.4480    0.2280 C   0  0  1  0  0  0  0  0  0  0  0  0
    1.2990    3.7630    0.1620 C   0  0  0  0  0  0  0  0  0  0  0  0
    1.3290    2.4290    0.0450 C   0  0  0  0  0  0  0  0  0  0  0  0
    0.1070    5.9200    0.2360 C   0  0  2  0  0  0  0  0  0  0  0  0
   -1.9970    4.1820    0.1130 H   0  0  0  0  0  0  0  0  0  0  0  0
   -1.9430    1.8700   -0.0510 H   0  0  0  0  0  0  0  0  0  0  0  0
    2.3150    1.9940   -0.0280 H   0  0  0  0  0  0  0  0  0  0  0  0
    2.2610    4.2610    0.1680 H   0  0  0  0  0  0  0  0  0  0  0  0
   -1.0760    6.5870    0.2230 C   0  0  0  0  0  0  0  0  0  0  0  0
   -1.1250    7.8800   -0.0870 C   0  0  0  0  0  0  0  0  0  0  0  0
    0.0150    8.5360   -0.3290 C   0  0  2  0  0  0  0  0  0  0  0  0
    1.2140    7.9560   -0.1620 C   0  0  1  0  0  0  0  0  0  0  0  0
    1.2490    6.6490    0.1320 C   0  0  0  0  0  0  0  0  0  0  0  0
   -0.1100    9.8590   -0.7320 C   0  0  0  0  0  0  0  0  0  0  0  0
   -2.0930    8.3740   -0.1480 H   0  0  0  0  0  0  0  0  0  0  0  0
   -2.0350    6.1130    0.3920 H   0  0  0  0  0  0  0  0  0  0  0  0
    2.2370    6.2100    0.2170 H   0  0  0  0  0  0  0  0  0  0  0  0
    2.7160    8.8090   -0.3680 Cl  0  0  0  0  0  0  0  0  0  0  0  0
   -0.3130   11.0260   -0.8330 C   0  0  0  0  0  0  0  0  0  0  0  0
   -0.5310   12.4630   -0.5980 C   0  0  0  0  0  0  0  0  0  0  0  0
   -0.5300   13.6100   -0.2800 C   0  0  0  0  0  0  0  0  0  0  0  0
   -0.4230   14.9760    0.0610 C   0  0  0  0  0  0  0  0  0  0  0  0
   -1.5980   15.6160    0.0700 O   0  0  0  0  0  0  0  0  0  0  0  0
    0.6440   15.5440    0.2230 O   0  0  0  0  0  0  0  0  0  0  0  0
   -1.3290   16.5550    0.1580 H   0  0  0  0  0  0  0  0  0  0  0  0
  1  5  1  0  0  0  0
  2  1  1  0  0  0  0
  3  2  2  0  0  0  0
  4  2  1  6  0  0  0
  4 10  5  0  0  0  0
  6  4  5  0  0  0  0
  6  7  5  0  0  0  0
  6 13  1  0  0  0  0
  7 12  1  0  0  0  0
  8  7  5  6  0  0  0
  8 11  1  0  0  0  0
  9  8  5  0  0  0  0
  9 15  1  0  0  0  0
 10  9  5  0  0  0  0
 10 14  1  0  0  0  0
 11 16  5  6  0  0  0
 11 20  5  0  0  0  0
 16 17  5  0  0  0  0
 16 23  1  0  0  0  0
 17 22  1  0  0  0  0
 18 17  5  0  0  0  0
 18 21  1  1  0  0  0
 19 18  5  0  0  0  0
 19 25  1  6  0  0  0
 20 19  5  0  0  0  0
 20 24  1  0  0  0  0
 26 21  3  0  0  0  0
 27 26  1  0  0  0  0
 28 27  3  0  0  0  0
 29 28  1  0  0  0  0
 29 31  2  0  0  0  0
 30 29  1  0  0  0  0
 32 30  1  0  0  0  0
M  END
